Version 4.1
SHEET 1 7948 3392
WIRE 1328 -928 1024 -928
WIRE 1760 -928 1328 -928
WIRE 2416 -928 1760 -928
WIRE 3088 -928 2416 -928
WIRE 1760 -800 1760 -928
WIRE 1920 -800 1760 -800
WIRE 2416 -800 2416 -928
WIRE 2576 -800 2416 -800
WIRE 3088 -800 3088 -928
WIRE 3248 -800 3088 -800
WIRE 1920 -704 1920 -800
WIRE 2576 -704 2576 -800
WIRE 3248 -704 3248 -800
WIRE 1760 -672 1760 -800
WIRE 2416 -672 2416 -800
WIRE 3088 -672 3088 -800
WIRE 368 -592 304 -592
WIRE 528 -592 448 -592
WIRE 688 -592 608 -592
WIRE 1712 -592 1648 -592
WIRE 1760 -592 1760 -608
WIRE 2368 -592 2304 -592
WIRE 2416 -592 2416 -608
WIRE 3040 -592 2976 -592
WIRE 3088 -592 3088 -608
WIRE 304 -544 304 -592
WIRE 1760 -544 1760 -576
WIRE 2416 -544 2416 -576
WIRE 3088 -544 3088 -576
WIRE 1920 -464 1920 -624
WIRE 2576 -464 2576 -624
WIRE 3248 -464 3248 -624
WIRE 304 -384 304 -464
WIRE 1024 -320 1024 -928
WIRE 1328 -320 1328 -928
WIRE 1760 -288 1760 -464
WIRE 2416 -288 2416 -464
WIRE 2416 -288 1760 -288
WIRE 3088 -288 3088 -464
WIRE 3088 -288 2416 -288
WIRE 3616 -288 3088 -288
WIRE 3616 -208 3616 -288
WIRE 1760 -192 1760 -288
WIRE 1920 -192 1920 -400
WIRE 2416 -192 2416 -288
WIRE 2576 -192 2576 -400
WIRE 3088 -192 3088 -288
WIRE 3248 -192 3248 -400
WIRE 1712 -112 1648 -112
WIRE 2368 -112 2304 -112
WIRE 3040 -112 2976 -112
WIRE 368 -80 304 -80
WIRE 528 -80 448 -80
WIRE 688 -80 608 -80
WIRE 3616 -80 3616 -128
WIRE 1760 -48 1760 -96
WIRE 2416 -48 2416 -96
WIRE 3088 -48 3088 -96
WIRE 304 -32 304 -80
WIRE 3616 64 3616 0
WIRE 304 128 304 48
WIRE 1760 144 1760 32
WIRE 1920 144 1920 -112
WIRE 1920 144 1760 144
WIRE 2416 144 2416 32
WIRE 2576 144 2576 -112
WIRE 2576 144 2416 144
WIRE 3088 144 3088 32
WIRE 3248 144 3248 -112
WIRE 3248 144 3088 144
WIRE 1024 256 1024 -240
WIRE 1328 256 1328 -256
WIRE 1328 256 1024 256
WIRE 1760 256 1760 144
WIRE 1760 256 1328 256
WIRE 2416 256 2416 144
WIRE 2416 256 1760 256
WIRE 3088 256 3088 144
WIRE 3088 256 2416 256
FLAG 304 128 0
FLAG 3616 64 0
FLAG 304 -384 0
FLAG 688 -592 G_HIGH
IOPIN 688 -592 BiDir
FLAG 688 -80 G_LOW
IOPIN 688 -80 BiDir
FLAG 1648 -592 G_HIGH
IOPIN 1648 -592 BiDir
FLAG 1648 -112 G_LOW
IOPIN 1648 -112 BiDir
FLAG 2304 -592 G_HIGH
IOPIN 2304 -592 BiDir
FLAG 2976 -592 G_HIGH
IOPIN 2976 -592 BiDir
FLAG 2304 -112 G_LOW
IOPIN 2304 -112 BiDir
FLAG 2976 -112 G_LOW
IOPIN 2976 -112 BiDir
SYMBOL voltage 1024 -336 R0
WINDOW 3 -255 62 Invisible 2
WINDOW 0 50 37 Left 2
SYMATTR SpiceLine Rser=0
SYMATTR Value {supply_voltage}
SYMATTR InstName V_DC
SYMBOL cap 1312 -320 R0
WINDOW 0 52 15 Left 2
WINDOW 3 24 56 Invisible 2
SYMATTR InstName C_DC1
SYMATTR Value {DC_link_capacitance}
SYMATTR SpiceLine Rser=0
SYMBOL voltage 304 -560 R0
WINDOW 123 0 0 Left 0
WINDOW 39 0 0 Left 0
WINDOW 3 -651 50 Left 2
SYMATTR InstName V2
SYMATTR Value PULSE(0 10 0 {Trise} {Tfall} {Ton-Tdead} {Tper})
SYMBOL voltage 304 -48 R0
WINDOW 123 0 0 Left 0
WINDOW 39 0 0 Left 0
WINDOW 3 -912 60 Left 2
SYMATTR InstName V3
SYMATTR Value PULSE(0 10 {Ton + Tdead} {Trise} {Tfall} {Tper-Ton-2*Tdead} {Tper})
SYMBOL cap 1904 -464 R0
WINDOW 0 62 32 Left 2
WINDOW 3 24 56 Invisible 2
SYMATTR InstName C_snb1
SYMATTR Value {snubber_capacitance}
SYMBOL res 3632 -112 R180
WINDOW 0 -88 68 Left 2
WINDOW 3 -235 29 Invisible 2
SYMATTR InstName R_ph
SYMATTR Value {phase_resistance}
SYMBOL ind 3600 -96 R0
WINDOW 0 63 60 Left 2
WINDOW 3 66 76 Invisible 2
SYMATTR InstName L_ph
SYMATTR Value {phase_inductance}
SYMATTR SpiceLine Rser=1m
SYMBOL nmos 1712 -672 R0
WINDOW 3 56 72 Invisible 2
SYMATTR InstName M1
SYMATTR Value IPTG011N08NM5_L0
SYMATTR Prefix X
SYMBOL nmos 1712 -192 R0
WINDOW 0 67 48 Left 2
WINDOW 3 56 72 Invisible 2
SYMATTR InstName M2
SYMATTR Value IPTG011N08NM5_L0
SYMATTR Prefix X
SYMBOL ind 1744 -560 R0
WINDOW 3 36 80 Invisible 2
SYMATTR InstName L_cm1
SYMATTR Value {common_mode_inductance}
SYMATTR SpiceLine Rser=0
SYMBOL ind 1744 -64 R0
WINDOW 3 36 80 Invisible 2
SYMATTR InstName L_cm2
SYMATTR Value {common_mode_inductance}
SYMATTR SpiceLine Rser=0
SYMBOL ind 1904 -208 R0
WINDOW 0 60 51 Left 2
WINDOW 3 36 80 Invisible 2
SYMATTR InstName L_pwr1
SYMATTR Value {power_loop_inductance}
SYMATTR SpiceLine Rser=0
SYMBOL ind 1904 -720 R0
WINDOW 0 60 51 Left 2
WINDOW 3 36 80 Invisible 2
SYMATTR InstName L_pwr2
SYMATTR Value {power_loop_inductance}
SYMATTR SpiceLine Rser=0
SYMBOL res 512 -576 R270
WINDOW 0 32 56 VTop 2
WINDOW 3 0 56 Invisible 2
SYMATTR InstName R_g1
SYMATTR Value {gate_resistance}
SYMBOL ind 352 -576 R270
WINDOW 0 32 56 VTop 2
WINDOW 3 5 56 Invisible 2
SYMATTR InstName L_g1
SYMATTR Value {gate_inductance}
SYMATTR SpiceLine Rser=0
SYMBOL cap 2560 -464 R0
WINDOW 0 62 32 Left 2
WINDOW 3 24 56 Invisible 2
SYMATTR InstName C_snb2
SYMATTR Value {snubber_capacitance}
SYMBOL nmos 2368 -672 R0
WINDOW 3 56 72 Invisible 2
SYMATTR InstName M3
SYMATTR Value IPTG011N08NM5_L0
SYMATTR Prefix X
SYMBOL nmos 2368 -192 R0
WINDOW 0 67 48 Left 2
WINDOW 3 56 72 Invisible 2
SYMATTR InstName M4
SYMATTR Value IPTG011N08NM5_L0
SYMATTR Prefix X
SYMBOL ind 2400 -560 R0
WINDOW 3 36 80 Invisible 2
SYMATTR InstName L_cm3
SYMATTR Value {common_mode_inductance}
SYMATTR SpiceLine Rser=0
SYMBOL ind 2400 -64 R0
WINDOW 3 36 80 Invisible 2
SYMATTR InstName L_cm4
SYMATTR Value {common_mode_inductance}
SYMATTR SpiceLine Rser=0
SYMBOL ind 2560 -208 R0
WINDOW 0 60 51 Left 2
WINDOW 3 36 80 Invisible 2
SYMATTR InstName L_pwr3
SYMATTR Value {power_loop_inductance}
SYMATTR SpiceLine Rser=0
SYMBOL ind 2560 -720 R0
WINDOW 0 60 51 Left 2
WINDOW 3 36 80 Invisible 2
SYMATTR InstName L_pwr4
SYMATTR Value {power_loop_inductance}
SYMATTR SpiceLine Rser=0
SYMBOL cap 3232 -464 R0
WINDOW 0 62 32 Left 2
WINDOW 3 24 56 Invisible 2
SYMATTR InstName C_snb3
SYMATTR Value {snubber_capacitance}
SYMBOL nmos 3040 -672 R0
WINDOW 3 56 72 Invisible 2
SYMATTR InstName M5
SYMATTR Value IPTG011N08NM5_L0
SYMATTR Prefix X
SYMBOL nmos 3040 -192 R0
WINDOW 0 67 48 Left 2
WINDOW 3 56 72 Invisible 2
SYMATTR InstName M6
SYMATTR Value IPTG011N08NM5_L0
SYMATTR Prefix X
SYMBOL ind 3072 -560 R0
WINDOW 3 36 80 Invisible 2
SYMATTR InstName L_cm5
SYMATTR Value {common_mode_inductance}
SYMATTR SpiceLine Rser=0
SYMBOL ind 3072 -64 R0
WINDOW 3 36 80 Invisible 2
SYMATTR InstName L_cm6
SYMATTR Value {common_mode_inductance}
SYMATTR SpiceLine Rser=0
SYMBOL ind 3232 -208 R0
WINDOW 0 60 51 Left 2
WINDOW 3 36 80 Invisible 2
SYMATTR InstName L_pwr5
SYMATTR Value {power_loop_inductance}
SYMATTR SpiceLine Rser=0
SYMBOL ind 3232 -720 R0
WINDOW 0 60 51 Left 2
WINDOW 3 36 80 Invisible 2
SYMATTR InstName L_pwr6
SYMATTR Value {power_loop_inductance}
SYMATTR SpiceLine Rser=0
SYMBOL res 512 -64 R270
WINDOW 0 32 56 VTop 2
WINDOW 3 0 56 Invisible 2
SYMATTR InstName R_g2
SYMATTR Value {gate_resistance}
SYMBOL ind 352 -64 R270
WINDOW 0 32 56 VTop 2
WINDOW 3 5 56 Invisible 2
SYMATTR InstName L_g2
SYMATTR Value {gate_inductance}
SYMATTR SpiceLine Rser=0
TEXT 984 696 Left 2 !.param D=0.1\n.param Freq=25000\n.param Tper = {1/Freq}\n.param Ton={D*Tper}\n.param Trise =80n\n.param Tfall =80n\n.param Tdead=200n
TEXT 984 504 Left 2 !.options reltol=1e-3 abstol=1e-11
TEXT 1816 520 Left 2 !.include OptiMOS5_80V_LTSpice.lib
TEXT 992 1016 Left 2 !.temp 25
TEXT 1832 920 Left 2 !.param snubber_capacitance = 10n
TEXT 1832 960 Left 2 !.param DC_link_capacitance = 550u
TEXT 1832 832 Left 2 !.param gate_resistor=2.4
TEXT 2560 432 Left 2 !.param supply_voltage =48
TEXT 2560 648 Left 2 !.param phase_resistance = 0.853m
TEXT 2560 608 Left 2 !.param phase_inductance = 0.5m
TEXT 2568 1040 Left 2 !.param parasitic_inductance = 3n
TEXT 2568 1000 Left 2 !.param gate_loop_parasitic_inductance = 3n
TEXT 984 904 Left 2 !.param t_start = Tper\n.param t_stop  = 2*Tper
TEXT 2560 464 Left 2 !.param I_RMS_LOAD = 140
TEXT 2560 496 Left 2 !.param I_RMS_MOSFET = (I_RMS_LOAD)*(sqrt(D))
TEXT 992 1056 Left 2 !.param ambient_temperature = 25
TEXT 1816 488 Left 2 !.param Maximum_junction_temperature = 175
TEXT 1816 456 Left 2 !.param rds_on = 1.1m
TEXT 984 600 Left 2 !.ic I(L_ph)=140 V(C_DC)=48\n.tran 0 500u uic
TEXT 2568 832 Left 2 !.param common_mode_inductance = 10n
TEXT 2568 880 Left 2 !.param power_loop_inductance = 100n
TEXT 1832 872 Left 2 !.param gate_resistance = 2.4
TEXT 2568 928 Left 2 !.param gate_inductance = 3n
TEXT 992 400 Left 3 ;SETUP
TEXT 1824 400 Left 3 ;MOSFET
TEXT 2560 392 Left 3 ;OPERATING POINT
TEXT 2568 784 Left 3 ;PARASITICS
TEXT 1832 792 Left 3 ;PASSIVES
