Version 4.1
SHEET 1 7924 1472
WIRE 2480 -2208 1168 -2208
WIRE 3552 -2128 1296 -2128
WIRE 928 -1920 352 -1920
WIRE 1168 -1920 1168 -2208
WIRE 1168 -1920 928 -1920
WIRE 1296 -1920 1296 -2128
WIRE 1296 -1920 1168 -1920
WIRE 1488 -1920 1296 -1920
WIRE 144 -1872 -384 -1872
WIRE 352 -1872 352 -1920
WIRE 352 -1872 144 -1872
WIRE 96 -1792 -384 -1792
WIRE 144 -1792 144 -1808
WIRE 144 -1792 96 -1792
WIRE 1488 -1792 1488 -1920
WIRE 1776 -1792 1488 -1792
WIRE 3552 -1760 3552 -2128
WIRE 3840 -1760 3552 -1760
WIRE 2480 -1744 2480 -2208
WIRE 3008 -1744 2480 -1744
WIRE 96 -1728 96 -1792
WIRE 3552 -1712 3552 -1760
WIRE 1488 -1696 1488 -1792
WIRE 2480 -1696 2480 -1744
WIRE 3216 -1632 3200 -1632
WIRE 3344 -1632 3296 -1632
WIRE 3504 -1632 3424 -1632
WIRE 512 -1616 432 -1616
WIRE 544 -1616 512 -1616
WIRE 704 -1616 544 -1616
WIRE 896 -1616 784 -1616
WIRE 1232 -1616 896 -1616
WIRE 1440 -1616 1312 -1616
WIRE 2256 -1616 2240 -1616
WIRE 2432 -1616 2336 -1616
WIRE 2448 -1616 2432 -1616
WIRE 432 -1552 432 -1616
WIRE 544 -1536 544 -1616
WIRE 2000 -1536 544 -1536
WIRE 2128 -1536 2080 -1536
WIRE 512 -1504 512 -1616
WIRE 3200 -1504 3200 -1632
WIRE 3200 -1504 512 -1504
WIRE 2128 -1472 2128 -1536
WIRE 2240 -1472 2240 -1616
WIRE 2240 -1472 2128 -1472
WIRE 3552 -1440 3552 -1616
WIRE 432 -1424 432 -1472
WIRE 1488 -1424 1488 -1600
WIRE 1488 -1424 432 -1424
WIRE 1936 -1424 1488 -1424
WIRE 2480 -1424 2480 -1600
WIRE 1936 -1200 1936 -1424
WIRE 2480 -1200 2480 -1424
WIRE 2480 -1200 1936 -1200
WIRE 2480 -1168 2480 -1200
WIRE 3552 -1168 3552 -1440
WIRE 3552 -1168 2480 -1168
WIRE 1856 -1088 1520 -1088
WIRE 3008 -1088 3008 -1744
WIRE 2480 -1072 2480 -1168
WIRE 2480 -1072 2208 -1072
WIRE 3584 -1072 3248 -1072
WIRE 2800 -1056 2768 -1056
WIRE 1856 -992 1856 -1088
WIRE 2480 -992 2480 -1072
WIRE 2480 -992 1856 -992
WIRE 2480 -928 2480 -992
WIRE 2768 -928 2768 -1056
WIRE 2768 -928 2480 -928
WIRE 2480 -896 2480 -928
WIRE 3248 -896 3248 -1072
WIRE 3248 -896 2480 -896
WIRE 2208 -848 2208 -1072
WIRE 3840 -800 3840 -1760
WIRE 3008 -720 3008 -1024
WIRE 2208 -640 2208 -768
WIRE 2800 -624 2800 -1056
WIRE 2800 -624 2512 -624
WIRE 1776 -608 1776 -1792
WIRE 3840 -576 3840 -736
WIRE 2208 -560 2176 -560
WIRE 1776 -480 1776 -544
WIRE 3008 -448 3008 -640
WIRE 3008 -448 2768 -448
WIRE 3584 -320 3584 -1072
WIRE 1520 -304 1520 -1088
WIRE 2512 -304 2512 -624
WIRE 3344 -240 3184 -240
WIRE 3536 -240 3424 -240
WIRE 768 -224 0 -224
WIRE 944 -224 848 -224
WIRE 992 -224 944 -224
WIRE 1040 -224 992 -224
WIRE 1216 -224 1040 -224
WIRE 1472 -224 1296 -224
WIRE 1488 -224 1472 -224
WIRE 2288 -224 2096 -224
WIRE 2464 -224 2368 -224
WIRE 2512 -208 2512 -224
WIRE 0 -160 0 -224
WIRE 0 -160 -160 -160
WIRE 1520 -160 1520 -208
WIRE 1776 -160 1776 -400
WIRE 1776 -160 1520 -160
WIRE 2512 -160 2512 -208
WIRE 2768 -160 2768 -448
WIRE 2768 -160 2512 -160
WIRE 3584 -160 3584 -224
WIRE 3840 -160 3840 -496
WIRE 3840 -160 3584 -160
WIRE -160 -144 -160 -160
WIRE -160 -144 -352 -144
WIRE 1040 -128 1040 -224
WIRE 3184 -128 3184 -240
WIRE 3184 -128 1040 -128
WIRE -352 0 -352 -64
WIRE 944 0 944 -224
WIRE 2096 0 2096 -224
WIRE 2096 0 944 0
WIRE 1520 64 1520 -160
WIRE 2512 64 2512 -160
WIRE 2512 64 1520 64
WIRE 3584 64 3584 -160
WIRE 3584 64 2512 64
WIRE 2512 208 2512 64
FLAG 896 -1616 Ga
FLAG 992 -224 Gb
FLAG 96 -1728 0
FLAG 2176 -560 0
FLAG 2480 -1424 A
FLAG 3552 -1440 A
FLAG 928 -1920 N003
FLAG 2512 208 0
FLAG -352 0 0
SYMBOL voltage -384 -1888 R0
WINDOW 123 0 0 Left 0
WINDOW 39 24 44 Left 2
WINDOW 3 24 72 Left 2
SYMATTR SpiceLine Rser=0
SYMATTR Value {supply_voltage}
SYMATTR InstName V1
SYMBOL cap 128 -1872 R0
SYMATTR InstName CDC1
SYMATTR Value {DC_link_capacitance}
SYMATTR SpiceLine Rser=1m
SYMBOL voltage 432 -1568 R0
WINDOW 123 0 0 Left 0
WINDOW 39 24 44 Left 2
SYMATTR SpiceLine Rser=0.71
SYMATTR InstName V2
SYMATTR Value PULSE(0 15 0 {Trise} {Tfall} {Ton-Tdead} {Tper})
SYMBOL ind 688 -1600 R270
WINDOW 0 32 56 VTop 2
WINDOW 3 5 56 VBottom 2
SYMATTR InstName L4
SYMATTR Value 0.5n
SYMATTR SpiceLine Rser=1m
SYMBOL ind 752 -208 R270
WINDOW 0 32 56 VTop 2
WINDOW 3 5 56 VBottom 2
SYMATTR InstName L5
SYMATTR Value {gate_loop_parasitic_inductance}
SYMATTR SpiceLine Rser=1m
SYMBOL nmos 1440 -1696 R0
SYMATTR InstName M3
SYMATTR Value IPTG011N08NM5_L0
SYMATTR Prefix X
SYMBOL nmos 1472 -304 R0
SYMATTR InstName M4
SYMATTR Value IPTG011N08NM5_L0
SYMATTR Prefix X
SYMBOL res 2224 -752 R180
WINDOW 0 36 76 Left 2
WINDOW 3 36 40 Left 2
SYMATTR InstName R4
SYMATTR Value {load_resistance}
SYMBOL ind 2192 -656 R0
SYMATTR InstName L7
SYMATTR Value {load_inductance}
SYMATTR SpiceLine Rser=1m
SYMBOL nmos 2432 -1696 R0
SYMATTR InstName M1
SYMATTR Value IPTG011N08NM5_L0
SYMATTR Prefix X
SYMBOL nmos 2464 -304 R0
SYMATTR InstName M2
SYMATTR Value IPTG011N08NM5_L0
SYMATTR Prefix X
SYMBOL nmos 3504 -1712 R0
SYMATTR InstName M5
SYMATTR Value IPTG011N08NM5_L0
SYMATTR Prefix X
SYMBOL nmos 3536 -320 R0
SYMATTR InstName M6
SYMATTR Value IPTG011N08NM5_L0
SYMATTR Prefix X
SYMBOL ind 1760 -496 R0
SYMATTR InstName LDC3
SYMATTR Value {parasitic_inductance}
SYMATTR SpiceLine Rser=1m
SYMBOL ind 3824 -592 R0
SYMATTR InstName LDC7
SYMATTR Value {parasitic_inductance}
SYMATTR SpiceLine Rser=1m
SYMBOL ind 2992 -736 R0
SYMATTR InstName LDC1
SYMATTR Value {parasitic_inductance}
SYMATTR SpiceLine Rser=1m
SYMBOL res 2352 -1632 R90
WINDOW 0 0 56 VBottom 2
WINDOW 3 32 56 VTop 2
SYMATTR InstName RG3
SYMATTR Value {gate_resistor}
SYMBOL res 3440 -1648 R90
WINDOW 0 0 56 VBottom 2
WINDOW 3 32 56 VTop 2
SYMATTR InstName RG4
SYMATTR Value {gate_resistor}
SYMBOL res 2384 -240 R90
WINDOW 0 0 56 VBottom 2
WINDOW 3 32 56 VTop 2
SYMATTR InstName RG5
SYMATTR Value {gate_resistor}
SYMBOL res 3440 -256 R90
WINDOW 0 0 56 VBottom 2
WINDOW 3 32 56 VTop 2
SYMATTR InstName RG6
SYMATTR Value {gate_resistor}
SYMBOL ind 1984 -1520 R270
WINDOW 0 32 56 VTop 2
WINDOW 3 5 56 VBottom 2
SYMATTR InstName L2
SYMATTR Value {gate_loop_parasitic_inductance}
SYMATTR SpiceLine Rser=1m
SYMBOL ind 3200 -1616 R270
WINDOW 0 32 56 VTop 2
WINDOW 3 5 56 VBottom 2
SYMATTR InstName L3
SYMATTR Value {gate_loop_parasitic_inductance}
SYMATTR SpiceLine Rser=1m
SYMBOL voltage -352 -160 R0
WINDOW 123 0 0 Left 0
WINDOW 39 24 44 Left 2
SYMATTR SpiceLine Rser=0.13
SYMATTR InstName V4
SYMATTR Value PULSE(0 15 {Ton + Tdead} {Trise} {Tfall} {Tper-Ton-2*Tdead} {Tper})
SYMBOL res 1328 -1632 R90
WINDOW 0 0 56 VBottom 2
WINDOW 3 32 56 VTop 2
SYMATTR InstName R2
SYMATTR Value {gate_resistor}
SYMBOL res 1312 -240 R90
WINDOW 0 0 56 VBottom 2
WINDOW 3 32 56 VTop 2
SYMATTR InstName R7
SYMATTR Value {gate_resistor}
SYMBOL cap 1760 -608 R0
SYMATTR InstName C2
SYMATTR Value {snubber_capacitance}
SYMBOL cap 2992 -1088 R0
SYMATTR InstName C3
SYMATTR Value {snubber_capacitance}
SYMBOL cap 3824 -800 R0
SYMATTR InstName C4
SYMATTR Value {snubber_capacitance}
TEXT -2224 -1128 Left 2 !.param D=0.1\n.param Freq=25000\n.param Tper = {1/Freq}\n.param Ton={D*Tper}\n.param Trise =12n\n.param Tfall =10n\n.param Tdead=90n
TEXT -1680 -1616 Left 2 !.options reltol=1e-3 abstol=1e-8
TEXT -3792 -1128 Left 2 !.include C:\\Users\\Harry\\Downloads\\OptiMOS5_80V_LTSpice.lib
TEXT -3752 -1208 Left 2 !.temp 25
TEXT -2256 -1392 Left 2 !.param snubber_capacitance = 300p
TEXT -2256 -1424 Left 2 !.param DC_link_capacitance = 132u
TEXT -2256 -1456 Left 2 !.param gate_resistor=4
TEXT -1696 -1032 Left 2 !.param supply_voltage =48
TEXT -1680 -1128 Left 2 !.param load_resistance = 0.853m
TEXT -1680 -1200 Left 2 !.param load_inductance =2.3m
TEXT -2264 -1296 Left 2 !.param parasitic_inductance = 2.3n
TEXT -960 696 Left 2 !.measure E_M3 INTEG (V(N003)*Ix(M3:D)+V(N005)*Ix(M3:G)+V(A)*Ix(M3:S)) FROM={t_start} TO={t_stop}
TEXT -1008 776 Left 2 !.measure E_M4 INTEG V(A)*Ix(M4:D)+V(N010)*Ix(M4:G)  FROM={t_start} TO={t_stop}
TEXT -784 920 Left 2 !.measure TRAN HIGH_SIDE_MOSFET_DRAIN_MAX_CURRENT MAX Ix(M3:D)  FROM={t_start} TO={t_stop}
TEXT -784 976 Left 2 !.measure TRAN HIGH_SIDE_MOSFET_DRAIN_MIN_CURRENT MIN Ix(M3:D)  FROM={t_start} TO={t_stop}
TEXT -776 1040 Left 2 !.measure TRAN HIGH_SIDE_MOSFET_GATE_MAX_CURRENT MAX Ix(M3:G)  FROM={t_start} TO={t_stop}
TEXT -760 1128 Left 2 !.measure TRAN HIGH_SIDE_MOSFET_GATE_MIN_CURRENT MIN Ix(M3:G)  FROM={t_start} TO={t_stop}
TEXT -752 1240 Left 2 !.measure TRAN HIGH_SIDE_MOSFET_SOURCE_MIN_CURRENT MIN Ix(M3:S)  FROM={t_start} TO={t_stop}
TEXT -744 1192 Left 2 !.measure TRAN HIGH_SIDE_MOSFET_SOURCE_MAX_CURRENT MAX Ix(M3:S)  FROM={t_start} TO={t_stop}
TEXT 576 904 Left 2 !.measure TRAN LOW_SIDE_MOSFET_DRAIN_MAX_CURRENT MAX Ix(M4:D)  FROM={t_start} TO={t_stop}
TEXT 576 960 Left 2 !.measure TRAN LOW_SIDE_MOSFET_DRAIN_MIN_CURRENT MIN Ix(M4:D) FROM={t_start} TO={t_stop}
TEXT 584 1024 Left 2 !.measure TRAN LOW_SIDE_MOSFET_GATE_MAX_CURRENT MAX Ix(M4:G)  FROM={t_start} TO={t_stop}
TEXT 600 1112 Left 2 !.measure TRAN LOW_SIDE_MOSFET_GATE_MIN_CURRENT MIN Ix(M4:G) FROM={t_start} TO={t_stop}
TEXT 608 1224 Left 2 !.measure TRAN LOW_SIDE_MOSFET_SOURCE_MIN_CURRENT MIN Ix(M4:S) FROM={t_start} TO={t_stop}
TEXT 616 1176 Left 2 !.measure TRAN LOW_SIDE_MOSFET_SOURCE_MAX_CURRENT MAX Ix(M4:S)  FROM={t_start} TO={t_stop}
TEXT 2072 864 Left 2 !.measure TRAN LOAD_VOLTAGE_MAX MAX V(a)  FROM={t_start} TO={t_stop}
TEXT 2080 920 Left 2 !.measure TRAN LOAD_VOLTAGE_MIN MIN V(a)  FROM={t_start} TO={t_stop}
TEXT 2088 960 Left 2 !.measure TRAN LOAD_CURRENT_MAX_STEP_SIZING MAX I(L7)  FROM={t_start} TO={t_stop}
TEXT 2088 1000 Left 2 !.measure TRAN LOAD_CURRENT_MIN_STEP_SIZING MIN I(L7)  FROM={t_start} TO={t_stop}
TEXT 2096 1072 Left 2 !.measure TRAN DC_LINK_CAPACITOR_VOLTAGE_MAX MAX V(n002)  FROM={t_start} TO={t_stop}
TEXT 2112 1120 Left 2 !.measure TRAN DC_LINK_CAPACITOR_VOLTAGE_MIN MIN V(n002)  FROM={t_start} TO={t_stop}
TEXT 2128 1176 Left 2 !.measure TRAN DC_LINK_CAPACITOR_CURRENT_MAX MAX I(CDC1)  FROM={t_start} TO={t_stop}
TEXT 2136 1224 Left 2 !.measure TRAN DC_LINK_CAPACITOR_CURRENT_MIN MIN I(CDC1)  FROM={t_start} TO={t_stop}
TEXT 2152 1280 Left 2 !.measure TRAN VOLTAGE_AT_HIGH_MOSFET_DRAIN_MAX MAX V(n003)  FROM={t_start} TO={t_stop}
TEXT 2160 1320 Left 2 !.measure TRAN VOLTAGE_AT_HIGH_MOSFET_DRAIN_MIN MIN V(n003)  FROM={t_start} TO={t_stop}
TEXT 3280 800 Left 2 !.measure TRAN SNUBBER_HIGH_MOSFET_CURRENT_MAX MAX I(C1)  FROM={t_start} TO={t_stop}
TEXT 3296 856 Left 2 !.measure TRAN SNUBBER_HIGH_MOSFET_CURRENT_MIN MIN I(C1)  FROM={t_start} TO={t_stop}
TEXT 3296 896 Left 2 !.measure TRAN SNUBBER_LOW_MOSFET_CURRENT_MAX MAX I(C2)  FROM={t_start} TO={t_stop}
TEXT 3296 936 Left 2 !.measure TRAN SNUBBER_LOW_MOSFET_CURRENT_MIN MIN I(C2) FROM={t_start} TO={t_stop}
TEXT 3328 1008 Left 2 !.measure TRAN VOLTAGE_AT_LOW_MOSFET_DRAIN_MAX MAX V(n006)  FROM={t_start} TO={t_stop}
TEXT 3336 1048 Left 2 !.measure TRAN VOLTAGE_AT_LOW_MOSFET_DRAIN_MIN MIN V(n006)  FROM={t_start} TO={t_stop}
TEXT 4760 768 Left 2 !.measure TRAN GATE_RESISTOR_HIGH_MOSFET_CURRENT_MAX MAX I(RG1) FROM={t_start} TO={t_stop}
TEXT 4760 816 Left 2 !.measure TRAN GATE_RESISTOR_HIGH_MOSFET_CURRENT_MIN MIN I(RG1)  FROM={t_start} TO={t_stop}
TEXT 4760 856 Left 2 !.measure TRAN GATE_RESISTOR_LOW_MOSFET_CURRENT_MAX MAX I(RG2)  FROM={t_start} TO={t_stop}
TEXT 4760 904 Left 2 !.measure TRAN GATE_RESISTOR_LOW_MOSFET_CURRENT_MIN MIN I(RG2)  FROM={t_start} TO={t_stop}
TEXT 4760 936 Left 2 !.measure TRAN VOLTAGE_AT_HIGH_MOSFET_GATE_MAX MAX V(n005)  FROM={t_start} TO={t_stop}
TEXT 4768 976 Left 2 !.measure TRAN VOLTAGE_AT_HIGH_MOSFET_GATE_MIN MIN V(n005)  FROM={t_start} TO={t_stop}
TEXT 4752 1008 Left 2 !.measure TRAN VOLTAGE_AT_LOW_MOSFET_GATE_MAX MAX V(n008)  FROM={t_start} TO={t_stop}
TEXT 4760 1048 Left 2 !.measure TRAN VOLTAGE_AT_LOW_MOSFET_GATE_MIN MIN V(n008)  FROM={t_start} TO={t_stop}
TEXT 6112 760 Left 2 !.measure TRAN VOLTAGE_ACROSS_HIGH_MOSFET_GATE_RESISTOR_MAX MAX V(Ga,N005)  FROM={t_start} TO={t_stop}
TEXT 6112 800 Left 2 !.measure TRAN VOLTAGE_ACROSS_HIGH_MOSFET_GATE_RESISTOR_MIN MIN V(Ga,N005)  FROM={t_start} TO={t_stop}
TEXT 6112 848 Left 2 !.measure TRAN VOLTAGE_ACROSS_LOW_MOSFET_GATE_RESISTOR_MAX MAX V(GB,N008)  FROM={t_start} TO={t_stop}
TEXT 6112 888 Left 2 !.measure TRAN VOLTAGE_ACROSS_LOW_MOSFET_GATE_RESISTOR_MIN MIN V(Gb,N008)  FROM={t_start} TO={t_stop}
TEXT 6096 960 Left 2 !.measure TRAN HIGH_MOSFET_INSTANTANEOUS_POWER_MAX MAX V(N003)*Ix(M3:D)+V(N005)*Ix(M3:G)+V(A)*Ix(M3:S)  FROM={t_start} TO={t_stop}
TEXT 6072 1016 Left 2 !.measure TRAN HIGH_MOSFET_INSTANTANEOUS_POWER_MIN MIN V(N003)*Ix(M3:D)+V(N005)*Ix(M3:G)+V(A)*Ix(M3:S)  FROM={t_start} TO={t_stop}
TEXT 6064 1104 Left 2 !.measure TRAN LOW_MOSFET_INSTANTANEOUS_POWER_MAX MAX V(A)*Ix(M4:D)+V(N010)*Ix(M4:G)  FROM={t_start} TO={t_stop}
TEXT 6056 1152 Left 2 !.measure TRAN LOW_MOSFET_INSTANTANEOUS_POWER_MIN MIN V(A)*Ix(M4:D)+V(N010)*Ix(M4:G)  FROM={t_start} TO={t_stop}
TEXT -1760 -1336 Left 2 !.param gate_loop_parasitic_inductance = 2.3n
TEXT -2440 -744 Left 2 !.param t_start = Tper\n.param t_stop  = 2*Tper
TEXT -2648 -560 Left 2 !.measure tran time_start_second_cycle param t_start
TEXT -2664 -520 Left 2 !..measure tran time_stop_second_cycle param t_stop
TEXT -1792 536 Left 2 !.measure HIGH_MOSFET_SWITCHING_LOSS PARAM E_M3*Freq
TEXT -1800 584 Left 2 !.measure LOW_MOSFET_SWITCHING_LOSS PARAM E_M4*Freq
TEXT -1688 640 Left 2 !.param I_RMS_LOAD = 140
TEXT -1768 720 Left 2 !.param I_RMS_MOSFET = (I_RMS_LOAD)*(sqrt(D))
TEXT -1752 776 Left 2 !.measure tran MOSFET_RMS_CURRENT param I_RMS_MOSFET
TEXT -1808 848 Left 2 !.param ambient_temperature = 25
TEXT -1784 952 Left 2 !.param Maximum_junction_temperature = 175
TEXT -2088 1112 Left 2 !.measure Total_power_losses_high_MOSFET PARAM HIGH_MOSFET_SWITCHING_LOSS + CONDUCTION_LOSS
TEXT -1912 1040 Left 2 !.measure CONDUCTION_LOSS PARAM (I_RMS_MOSFET**2)*(rds_on)
TEXT -2120 992 Left 2 !.param rds_on = 1.1m
TEXT -2112 1184 Left 2 !.measure Total_power_losses_LOW_MOSFET PARAM LOW_MOSFET_SWITCHING_LOSS + CONDUCTION_LOSS
TEXT -3040 1296 Left 2 !.measure MAXIMUM_ALLOWABLE_THERMAL_RESISTANCE_JUNCTION_TO_AMBIENT_HIGH_MOSFET param (Maximum_junction_temperature - ambient_temperature)/(Total_power_losses_high_MOSFET)
TEXT -3040 1360 Left 2 !.measure MAXIMUM_ALLOWABLE_THERMAL_RESISTANCE_JUNCTION_TO_AMBIENT_LOW_MOSFET param (Maximum_junction_temperature - ambient_temperature)/(Total_power_losses_LOW_MOSFET)
TEXT -1688 -1520 Left 2 !.ic I(L7)=140 V(n003)=48\n.tran 0 500u 0
TEXT 3720 1408 Left 2 !.measure TRAN VOLTAGE_ACROSS_HIGH_MOSFET_POWER_RAILS_MAX MAX V(N003,A)  FROM={t_start} TO={t_stop}
TEXT 3736 1456 Left 2 !.measure TRAN VOLTAGE_ACROSS_HIGH_MOSFET_POWER_RAILS_MIN MIN V(N003,A)  FROM={t_start} TO={t_stop}
TEXT 3928 1288 Left 2 !.measure TRAN VOLTAGE_ACROSS_LOW_MOSFET_POWER_RAILS_MAX MAX V(a)  FROM={t_start} TO={t_stop}
TEXT 3944 1336 Left 2 !.measure TRAN VOLTAGE_ACROSS_LOW_MOSFET_POWER_RAILS_MIN MIN V(a)  FROM={t_start} TO={t_stop}
TEXT -2256 -1568 Left 2 !.param snubber_resistance = 4.8
TEXT -3104 -1680 Left 2 !.include UCC5390ECD.lib
