Version 4.1
SHEET 1 1284 680
WIRE 1024 -112 656 -112
WIRE 656 16 656 -32
WIRE 1024 64 1024 -112
WIRE 976 144 832 144
WIRE 1024 224 1024 160
WIRE 1104 224 1024 224
WIRE 832 304 832 144
WIRE 1104 400 1104 224
WIRE 832 432 832 384
FLAG 1104 400 0
FLAG 832 432 0
FLAG 656 16 0
SYMBOL NVBYST0D6N08X_3P 976 64 R0
SYMATTR InstName U1
SYMBOL voltage 656 -128 R0
WINDOW 123 0 0 Left 0
WINDOW 39 0 0 Left 0
SYMATTR InstName V1
SYMATTR Value 10
SYMBOL voltage 832 288 R0
WINDOW 123 0 0 Left 0
WINDOW 39 0 0 Left 0
SYMATTR InstName V2
SYMATTR Value 0
TEXT 0 136 Left 2 !.include C:\\Users\\Harry\\Downloads\\T10_80V_STD_rev3p1_ltspice.txt
TEXT 256 424 Left 2 !.DC V2 0 10 0.1
