Version 4.1
SHEET 1 1076 704
WIRE 416 -144 384 -144
WIRE 512 -144 480 -144
WIRE 384 -80 384 -144
WIRE 512 -80 512 -144
WIRE 96 96 64 96
WIRE 64 128 64 96
WIRE 96 128 96 96
WIRE 128 128 96 128
WIRE 384 128 384 0
WIRE 384 128 288 128
WIRE 128 160 -384 160
WIRE 432 160 288 160
WIRE 736 160 512 160
WIRE 736 176 736 160
WIRE 128 192 -176 192
WIRE 560 192 288 192
WIRE 704 192 640 192
WIRE -384 208 -384 160
WIRE 128 224 48 224
WIRE 384 224 288 224
WIRE 704 224 704 192
WIRE 384 240 384 224
WIRE -384 320 -384 288
WIRE -240 320 -384 320
WIRE -176 320 -176 192
WIRE -176 320 -240 320
WIRE 48 336 48 224
WIRE 128 336 48 336
WIRE 224 336 208 336
WIRE 288 352 288 336
WIRE -240 368 -240 320
FLAG 736 176 0
FLAG 704 224 0
FLAG 384 240 0
FLAG 64 128 0
FLAG -240 368 0
FLAG 512 -80 0
FLAG 288 352 0
SYMBOL UCC5390SCD_TRANS 208 176 R0
SYMATTR InstName U1
SYMBOL voltage -384 192 R0
WINDOW 123 0 0 Left 0
WINDOW 39 0 0 Left 0
SYMATTR InstName V2
SYMATTR Value PULSE(0 5 1u 10n 10n 5u 10u)
SYMBOL voltage 416 160 R270
WINDOW 0 32 56 VTop 2
WINDOW 3 -32 56 VBottom 2
WINDOW 123 0 0 Left 0
WINDOW 39 0 0 Left 0
SYMATTR InstName V1
SYMATTR Value 5
SYMBOL voltage 544 192 R270
WINDOW 0 32 56 VTop 2
WINDOW 3 -32 56 VBottom 2
WINDOW 123 0 0 Left 0
WINDOW 39 0 0 Left 0
SYMATTR InstName V3
SYMATTR Value 15
SYMBOL res 224 320 R90
WINDOW 0 0 56 VBottom 2
WINDOW 3 32 56 VTop 2
SYMATTR InstName R1
SYMATTR Value 5
SYMBOL res 368 -96 R0
SYMATTR InstName R2
SYMATTR Value 1
SYMBOL cap 288 320 R90
WINDOW 0 0 32 VBottom 2
WINDOW 3 32 32 VTop 2
SYMATTR InstName C1
SYMATTR Value 1n
SYMBOL cap 480 -160 R90
WINDOW 0 0 32 VBottom 2
WINDOW 3 32 32 VTop 2
SYMATTR InstName C2
SYMATTR Value 1n
TEXT -488 -152 Left 2 !.include UCC5390SCD_TRANS.lib
TEXT 464 512 Left 2 !.tran 0 100u 0 1n uic
TEXT -624 688 Left 2 !.options reltol=1e-3 abstol=1e-2
TEXT -568 552 Left 2 !.options method = trap
