Version 4.1
SHEET 1 1072 680
SYMBOL UCC5390ECD_TRANS 944 240 R0
SYMATTR InstName U1
TEXT -128 32 Left 2 !.include UCC5390ECD_TRANS.lib
