Version 4.1
SHEET 1 1736 760
WIRE 560 -160 400 -160
WIRE 768 -160 560 -160
WIRE 1232 -160 768 -160
WIRE 400 -112 400 -160
WIRE 560 -112 560 -160
WIRE 768 -112 768 -160
WIRE 560 -32 560 -48
WIRE 656 -32 560 -32
WIRE 768 -32 768 -48
WIRE 768 -32 656 -32
WIRE 400 0 400 -32
WIRE 560 0 560 -32
WIRE 560 0 400 0
WIRE 656 0 656 -32
WIRE 768 192 768 -32
WIRE 864 192 768 192
WIRE 1344 192 1024 192
WIRE 1488 192 1424 192
WIRE 1616 192 1552 192
WIRE 864 224 320 224
WIRE 1232 224 1232 -160
WIRE 1232 224 1024 224
WIRE 1616 224 1616 192
WIRE 864 256 400 256
WIRE 1344 256 1024 256
WIRE 1568 256 1344 256
WIRE 1680 256 1568 256
WIRE 1680 272 1680 256
WIRE 864 288 848 288
WIRE 1232 288 1024 288
WIRE 400 304 400 256
WIRE 1344 304 1344 256
WIRE 1568 320 1568 256
WIRE 1344 432 1344 368
WIRE 1440 432 1344 432
WIRE 1568 432 1568 384
WIRE 1568 432 1440 432
WIRE 1680 432 1680 352
WIRE 1680 432 1568 432
WIRE 400 448 400 384
WIRE 736 448 400 448
WIRE 848 448 848 288
WIRE 848 448 736 448
WIRE 736 512 736 448
WIRE 320 672 320 224
WIRE 1232 672 1232 288
WIRE 1232 672 320 672
WIRE 1312 672 1232 672
WIRE 1440 672 1440 432
WIRE 1440 672 1312 672
WIRE 1312 736 1312 672
FLAG 656 0 0
FLAG 736 512 0
FLAG 1312 736 0
FLAG 1616 224 0
SYMBOL UCC5390ECD_TRANS 944 240 R0
SYMATTR InstName U1
SYMBOL voltage 400 -128 R0
WINDOW 123 0 0 Left 0
WINDOW 39 0 0 Left 0
SYMATTR InstName V1
SYMATTR Value 5
SYMBOL voltage 1680 256 R0
WINDOW 123 0 0 Left 0
WINDOW 39 0 0 Left 0
SYMATTR InstName V2
SYMATTR Value 15
SYMBOL voltage 400 288 R0
WINDOW 123 0 0 Left 0
WINDOW 39 0 0 Left 0
SYMATTR InstName V3
SYMATTR Value PULSE(0 5 0 10n 10n 5u 10u)
SYMBOL cap 752 -112 R0
SYMATTR InstName C1
SYMATTR Value 0.1”
SYMBOL cap 544 -112 R0
SYMATTR InstName C2
SYMATTR Value 0.1”
SYMBOL cap 1328 304 R0
SYMATTR InstName C3
SYMATTR Value 1”
SYMBOL cap 1552 320 R0
SYMATTR InstName C4
SYMATTR Value 1”
SYMBOL res 1440 176 R90
WINDOW 0 0 56 VBottom 2
WINDOW 3 32 56 VTop 2
SYMATTR InstName R1
SYMATTR Value 1
SYMBOL cap 1488 208 R270
WINDOW 0 32 32 VTop 2
WINDOW 3 0 32 VBottom 2
SYMATTR InstName C5
SYMATTR Value 5n
TEXT -128 32 Left 2 !.include UCC5390ECD_TRANS.lib
TEXT -56 432 Left 2 !.tran 0 50u
TEXT -696 224 Left 2 !.options reltol=0.01 abstol=1e-5\n.options maxstep=20n
