Version 4.1
SHEET 1 1716 880
WIRE 1136 -560 80 -560
WIRE -208 -512 -352 -512
WIRE 0 -512 0 -560
WIRE 0 -512 -208 -512
WIRE 1136 -464 1136 -560
WIRE -256 -432 -352 -432
WIRE -208 -432 -208 -448
WIRE -208 -432 -256 -432
WIRE -256 -368 -256 -432
WIRE 1136 -336 1136 -384
WIRE 880 -256 528 -256
WIRE 960 -256 880 -256
WIRE 1088 -256 1040 -256
WIRE 528 -144 528 -256
WIRE 1136 -64 1136 -240
WIRE 1136 -48 1136 -64
WIRE 1408 -48 1136 -48
WIRE 1616 -48 1488 -48
WIRE 1696 -16 1696 -48
WIRE 1136 112 1136 -48
WIRE 1136 320 1136 192
WIRE 896 400 80 400
WIRE 976 400 896 400
WIRE 1088 400 1056 400
WIRE 80 496 80 400
WIRE 1136 512 1136 416
WIRE 80 592 80 576
WIRE 1136 672 1136 592
FLAG 880 -256 Ga
FLAG 896 400 Gb
FLAG 1696 -16 0
FLAG 1136 -64 A
FLAG -256 -368 0
FLAG 1136 672 0
FLAG 528 -64 0
FLAG 80 592 0
SYMBOL voltage -352 -528 R0
WINDOW 123 0 0 Left 0
WINDOW 39 0 0 Left 0
SYMATTR InstName V1
SYMATTR Value 48
SYMBOL cap -224 -512 R0
SYMATTR InstName CDC1
SYMATTR Value 470µ
SYMBOL ind -16 -544 R270
WINDOW 0 32 56 VTop 2
WINDOW 3 5 56 VBottom 2
SYMATTR InstName LDC1
SYMATTR Value 3n
SYMATTR SpiceLine Rser=1m
SYMBOL res 1504 -64 R90
WINDOW 0 0 56 VBottom 2
WINDOW 3 32 56 VTop 2
SYMATTR InstName R1
SYMATTR Value 0.853m
SYMBOL res 1056 -272 R90
WINDOW 0 0 56 VBottom 2
WINDOW 3 32 56 VTop 2
SYMATTR InstName RG1
SYMATTR Value 2.5
SYMBOL res 1072 384 R90
WINDOW 0 0 56 VBottom 2
WINDOW 3 32 56 VTop 2
SYMATTR InstName RG2
SYMATTR Value 2.5
SYMBOL ind 1120 -480 R0
SYMATTR InstName LBUS1
SYMATTR Value 3n
SYMATTR SpiceLine Rser=1m
SYMBOL ind 1120 96 R0
SYMATTR InstName L1
SYMATTR Value 3n
SYMATTR SpiceLine Rser=1m
SYMBOL NVBYST0D6N08X_3P 1088 -336 R0
SYMATTR InstName U1
SYMBOL NVBYST0D6N08X_3P 1088 320 R0
SYMATTR InstName U2
SYMBOL ind 1600 -32 R270
WINDOW 0 32 56 VTop 2
WINDOW 3 5 56 VBottom 2
SYMATTR InstName L2
SYMATTR Value 0.555m
SYMATTR SpiceLine Rser=1m
SYMBOL ind 1120 496 R0
SYMATTR InstName L3
SYMATTR Value 3n
SYMATTR SpiceLine Rser=1m
SYMBOL voltage 528 -160 R0
WINDOW 123 0 0 Left 0
WINDOW 39 0 0 Left 0
SYMATTR InstName V2
SYMATTR Value PULSE (0 12 0 {Trise} {Tfall} {Ton-Tdead} {Tper})
SYMBOL voltage 80 480 R0
WINDOW 123 0 0 Left 0
WINDOW 39 0 0 Left 0
SYMATTR InstName V3
SYMATTR Value PULSE ( 0 12 {Ton + Tdead} {Trise} {Tfall} {Tper-Ton-2*Tdead} {Tper})
TEXT -1488 344 Left 2 !.include C:\\Users\\Harry\\Downloads\\T10_80V_STD_rev3p1_ltspice.txt
TEXT -1168 -192 Left 2 !.param D= 0.0041\n.param Freq = 1k\n.param Tper = {1/Freq}\n.param Ton={D*Tper}\n.param Trise =1n\n.param Tfall =1n\n.param Tdead =50n
TEXT -960 616 Left 2 !.tran 0 20m 0 5n uic\n.options method=gear reltol=1e-3 abstol=1e-9
