Version 4.1
SHEET 1 2500 1572
WIRE -1760 48 -2816 48
WIRE -3104 96 -3248 96
WIRE -2896 96 -2896 48
WIRE -2896 96 -3104 96
WIRE -1760 144 -1760 48
WIRE -3152 176 -3248 176
WIRE -3104 176 -3104 160
WIRE -3104 176 -3152 176
WIRE -3152 240 -3152 176
WIRE -1760 272 -1760 224
WIRE -2016 352 -2096 352
WIRE -1936 352 -2016 352
WIRE -1808 352 -1856 352
WIRE -1760 544 -1760 368
WIRE -1760 560 -1760 544
WIRE -1488 560 -1760 560
WIRE -1280 560 -1408 560
WIRE -1200 592 -1200 560
WIRE -1760 720 -1760 560
WIRE -1760 928 -1760 800
WIRE -2048 1008 -2064 1008
WIRE -2000 1008 -2048 1008
WIRE -1920 1008 -2000 1008
WIRE -1808 1008 -1840 1008
WIRE -1760 1120 -1760 1024
WIRE -1760 1280 -1760 1200
FLAG -2016 352 Ga
FLAG -2000 1008 Gb
FLAG -1200 592 0
FLAG -1760 544 A
FLAG -3152 240 0
FLAG -1760 1280 0
FLAG -2176 352 0
FLAG -2128 1008 0
SYMBOL voltage -3248 80 R0
WINDOW 123 0 0 Left 0
WINDOW 39 0 0 Left 0
SYMATTR InstName V2
SYMATTR Value 48
SYMBOL cap -3120 96 R0
SYMATTR InstName CDC1
SYMATTR Value 470µ
SYMBOL ind -2912 64 R270
WINDOW 0 32 56 VTop 2
WINDOW 3 5 56 VBottom 2
SYMATTR InstName LDC1
SYMATTR Value 3n
SYMATTR SpiceLine Rser=1m
SYMBOL res -1392 544 R90
WINDOW 0 0 56 VBottom 2
WINDOW 3 32 56 VTop 2
SYMATTR InstName R1
SYMATTR Value 0.853m
SYMBOL res -1840 336 R90
WINDOW 0 0 56 VBottom 2
WINDOW 3 32 56 VTop 2
SYMATTR InstName RG1
SYMATTR Value 10
SYMBOL res -1824 992 R90
WINDOW 0 0 56 VBottom 2
WINDOW 3 32 56 VTop 2
SYMATTR InstName RG2
SYMATTR Value 10
SYMBOL ind -1776 128 R0
SYMATTR InstName LBUS1
SYMATTR Value 3n
SYMATTR SpiceLine Rser=1m
SYMBOL ind -1776 704 R0
SYMATTR InstName L1
SYMATTR Value 3n
SYMATTR SpiceLine Rser=1m
SYMBOL NVBYST0D6N08X_3P -1808 272 R0
SYMATTR InstName U1
SYMBOL NVBYST0D6N08X_3P -1808 928 R0
SYMATTR InstName U2
SYMBOL ind -1296 576 R270
WINDOW 0 32 56 VTop 2
WINDOW 3 5 56 VBottom 2
SYMATTR InstName L2
SYMATTR Value 0.555m
SYMATTR SpiceLine Rser=1m
SYMBOL ind -1776 1104 R0
SYMATTR InstName L7
SYMATTR Value 3n
SYMATTR SpiceLine Rser=1m
SYMBOL voltage -2080 352 R90
WINDOW 123 0 0 Left 0
WINDOW 39 0 0 Left 0
SYMATTR InstName V1
SYMATTR Value PULSE(0 12 0 20n 20n 30u 100u)
SYMBOL voltage -2032 1008 R90
WINDOW 123 0 0 Left 0
WINDOW 39 0 0 Left 0
SYMATTR InstName V4
SYMATTR Value PULSE(0 12 30.05u 20n 20n 30u 100u)
TEXT -4384 952 Left 2 !.include C:\\Users\\Harry\\Downloads\\T10_80V_STD_rev3p1_ltspice.txt
TEXT -3944 1216 Left 2 !.tran 0 500u 0 5n uic\n.options method=gear reltol=1e-3 abstol=1e-9
