Version 4.1
SHEET 1 5044 1364
WIRE -3120 -800 -3120 -880
WIRE -3120 -704 -3120 -800
WIRE -2976 -208 -2976 -288
WIRE -2976 -112 -2976 -208
WIRE 784 64 -272 64
WIRE 2400 64 784 64
WIRE 4464 64 2400 64
WIRE -560 112 -704 112
WIRE -352 112 -352 64
WIRE -352 112 -560 112
WIRE 2400 144 2400 64
WIRE 784 160 784 64
WIRE -608 192 -704 192
WIRE -560 192 -560 176
WIRE -560 192 -608 192
WIRE 4464 208 4464 64
WIRE -608 256 -608 192
WIRE 2400 272 2400 224
WIRE 784 288 784 240
WIRE 4464 336 4464 288
WIRE 2080 352 2000 352
WIRE 2224 352 2080 352
WIRE 2352 352 2304 352
WIRE 528 368 448 368
WIRE 608 368 528 368
WIRE 736 368 688 368
WIRE 4080 416 4000 416
WIRE 4288 416 4080 416
WIRE 4416 416 4368 416
WIRE -3456 544 -3456 512
WIRE -2848 544 -2848 464
WIRE 2400 544 2400 368
WIRE 784 560 784 384
WIRE 2400 560 2400 544
WIRE 2672 560 2400 560
WIRE 2880 560 2752 560
WIRE -3968 576 -3968 528
WIRE 784 576 784 560
WIRE 1056 576 784 576
WIRE 1264 576 1136 576
WIRE -4464 592 -4464 544
WIRE 2960 592 2960 560
WIRE 1344 608 1344 576
WIRE 4464 608 4464 432
WIRE -4464 624 -4464 592
WIRE -3456 624 -3456 544
WIRE 4464 624 4464 608
WIRE 4736 624 4464 624
WIRE 4944 624 4816 624
WIRE -3968 640 -3968 576
WIRE -2848 640 -2848 544
WIRE 5024 656 5024 624
WIRE 2400 720 2400 560
WIRE 784 736 784 576
WIRE 4464 784 4464 624
WIRE -4976 832 -4976 784
WIRE -4448 848 -4448 800
WIRE -4976 864 -4976 832
WIRE -4448 880 -4448 848
WIRE 2400 928 2400 800
WIRE 784 944 784 816
WIRE 4464 992 4464 864
WIRE 2080 1008 2016 1008
WIRE 2240 1008 2080 1008
WIRE 2352 1008 2320 1008
WIRE 544 1024 480 1024
WIRE 624 1024 544 1024
WIRE 736 1024 704 1024
WIRE 4112 1072 4048 1072
WIRE 4304 1072 4112 1072
WIRE 4416 1072 4384 1072
WIRE 2400 1120 2400 1024
WIRE 784 1136 784 1040
WIRE 4464 1184 4464 1088
WIRE 784 1296 784 1216
WIRE 2400 1296 2400 1200
WIRE 4464 1344 4464 1264
FLAG -3456 704 0
FLAG -3456 544 tri_old
FLAG -4464 704 0
FLAG -2848 720 0
FLAG -4464 592 refA
FLAG -3968 720 0
FLAG -3968 576 tri
FLAG -2848 544 pwmA
FLAG -4976 944 0
FLAG -4976 832 refB
FLAG -4448 960 0
FLAG -4448 848 refC
FLAG -3120 -624 0
FLAG -3120 -800 pwmB
FLAG -2976 -32 0
FLAG -2976 -208 pwmC
FLAG 368 368 0
FLAG 528 368 Ga
FLAG 400 1024 0
FLAG 544 1024 Gb
FLAG 1344 608 0
FLAG 784 560 A
FLAG -608 256 0
FLAG 2960 592 0
FLAG 2400 544 B
FLAG 1920 352 0
FLAG 2080 352 Gc
FLAG 1936 1008 0
FLAG 2080 1008 Gd
FLAG 3920 416 0
FLAG 4080 416 Ge
FLAG 3968 1072 0
FLAG 4112 1072 Gf
FLAG 5024 656 0
FLAG 4464 608 C
FLAG 784 1296 0
FLAG 2400 1296 0
FLAG 4464 1344 0
SYMBOL voltage -704 96 R0
WINDOW 123 0 0 Left 0
WINDOW 39 0 0 Left 0
SYMATTR InstName V1
SYMATTR Value 48
SYMBOL cap -576 112 R0
SYMATTR InstName CDC
SYMATTR Value 470µ
SYMBOL ind -368 80 R270
WINDOW 0 32 56 VTop 2
WINDOW 3 5 56 VBottom 2
SYMATTR InstName LDC
SYMATTR Value 40n
SYMATTR SpiceLine Rser=1m
SYMBOL res 1152 560 R90
WINDOW 0 0 56 VBottom 2
WINDOW 3 32 56 VTop 2
SYMATTR InstName R2
SYMATTR Value 0.853m
SYMBOL res 704 352 R90
WINDOW 0 0 56 VBottom 2
WINDOW 3 32 56 VTop 2
SYMATTR InstName RG1
SYMATTR Value 10
SYMBOL res 720 1008 R90
WINDOW 0 0 56 VBottom 2
WINDOW 3 32 56 VTop 2
SYMATTR InstName RG2
SYMATTR Value 10
SYMBOL ind 768 144 R0
SYMATTR InstName LBUS1
SYMATTR Value 3n
SYMATTR SpiceLine Rser=1m
SYMBOL ind 768 720 R0
SYMATTR InstName L3
SYMATTR Value 3n
SYMATTR SpiceLine Rser=1m
SYMBOL NVBYST0D6N08X_3P 736 288 R0
SYMATTR InstName U1
SYMBOL NVBYST0D6N08X_3P 736 944 R0
SYMATTR InstName U2
SYMBOL bv -3456 608 R0
SYMATTR InstName B2
SYMATTR Value V = 2*abs(mod(10000*time,1)-0.5)
SYMBOL voltage -4464 608 R0
WINDOW 123 0 0 Left 0
WINDOW 39 0 0 Left 0
SYMATTR InstName V3
SYMATTR Value SINE(0.5 0.45 50 0 0 0 0)
SYMBOL bv -2848 624 R0
SYMATTR InstName B3
SYMATTR Value V = if(V(refA) > V(tri), 5, 0)
SYMBOL voltage -3968 624 R0
WINDOW 123 0 0 Left 0
WINDOW 39 0 0 Left 0
SYMATTR InstName V4
SYMATTR Value PULSE(0 1 0 50u 50u 0 100u 0)
SYMBOL voltage -4976 848 R0
WINDOW 123 0 0 Left 0
WINDOW 39 0 0 Left 0
SYMATTR InstName V5
SYMATTR Value SINE(0.5 0.45 50 0 0 120 0)
SYMBOL voltage -4448 864 R0
WINDOW 123 0 0 Left 0
WINDOW 39 0 0 Left 0
SYMATTR InstName V6
SYMATTR Value SINE(0.5 0.45 50 0 0 240 0)
SYMBOL bv -3120 -720 R0
SYMATTR InstName B6
SYMATTR Value V = if(V(refB) > V(tri), 5, 0)
SYMBOL bv -2976 -128 R0
SYMATTR InstName B9
SYMATTR Value V = if(V(refC) > V(tri), 5, 0)
SYMBOL bv 464 368 R90
WINDOW 0 -32 56 VBottom 2
WINDOW 3 32 56 VTop 2
SYMATTR InstName B12
SYMATTR Value V = delay(if(V(pwmA)>2.5, 5, 0), 10u)
SYMBOL bv 496 1024 R90
WINDOW 0 -32 56 VBottom 2
WINDOW 3 32 56 VTop 2
SYMATTR InstName B13
SYMATTR Value V = delay(if(V(pwmA)>2.5, 0, 5), 10u)
SYMBOL ind 1248 592 R270
WINDOW 0 32 56 VTop 2
WINDOW 3 5 56 VBottom 2
SYMATTR InstName L1
SYMATTR Value 0.555m
SYMATTR SpiceLine Rser=1m
SYMBOL res 2768 544 R90
WINDOW 0 0 56 VBottom 2
WINDOW 3 32 56 VTop 2
SYMATTR InstName R1
SYMATTR Value 0.853m
SYMBOL res 2320 336 R90
WINDOW 0 0 56 VBottom 2
WINDOW 3 32 56 VTop 2
SYMATTR InstName RG3
SYMATTR Value 10
SYMBOL res 2336 992 R90
WINDOW 0 0 56 VBottom 2
WINDOW 3 32 56 VTop 2
SYMATTR InstName RG4
SYMATTR Value 10
SYMBOL ind 2384 128 R0
SYMATTR InstName LBUS2
SYMATTR Value 3n
SYMATTR SpiceLine Rser=1m
SYMBOL ind 2384 704 R0
SYMATTR InstName L2
SYMATTR Value 3n
SYMATTR SpiceLine Rser=1m
SYMBOL NVBYST0D6N08X_3P 2352 272 R0
SYMATTR InstName U3
SYMBOL NVBYST0D6N08X_3P 2352 928 R0
SYMATTR InstName U4
SYMBOL ind 2864 576 R270
WINDOW 0 32 56 VTop 2
WINDOW 3 5 56 VBottom 2
SYMATTR InstName L4
SYMATTR Value 0.555m
SYMATTR SpiceLine Rser=1m
SYMBOL bv 2016 352 R90
WINDOW 0 -32 56 VBottom 2
WINDOW 3 32 56 VTop 2
SYMATTR InstName B1
SYMATTR Value V = delay(if(V(pwmB)>2.5, 5, 0), 10u)
SYMBOL bv 2032 1008 R90
WINDOW 0 -32 56 VBottom 2
WINDOW 3 32 56 VTop 2
SYMATTR InstName B14
SYMATTR Value V = delay(if(V(pwmB)>2.5, 0, 5), 10u)
SYMBOL bv 4016 416 R90
WINDOW 0 -32 56 VBottom 2
WINDOW 3 32 56 VTop 2
SYMATTR InstName B15
SYMATTR Value V = delay(if(V(pwmC)>2.5, 5, 0), 10u)
SYMBOL bv 4064 1072 R90
WINDOW 0 -32 56 VBottom 2
WINDOW 3 32 56 VTop 2
SYMATTR InstName B16
SYMATTR Value V = delay(if(V(pwmC)>2.5, 0, 5), 10u)
SYMBOL res 4832 608 R90
WINDOW 0 0 56 VBottom 2
WINDOW 3 32 56 VTop 2
SYMATTR InstName R3
SYMATTR Value 0.853m
SYMBOL res 4384 400 R90
WINDOW 0 0 56 VBottom 2
WINDOW 3 32 56 VTop 2
SYMATTR InstName RG5
SYMATTR Value 10
SYMBOL res 4400 1056 R90
WINDOW 0 0 56 VBottom 2
WINDOW 3 32 56 VTop 2
SYMATTR InstName RG6
SYMATTR Value 10
SYMBOL ind 4448 192 R0
SYMATTR InstName LBUS3
SYMATTR Value 3n
SYMATTR SpiceLine Rser=1m
SYMBOL ind 4448 768 R0
SYMATTR InstName L5
SYMATTR Value 3n
SYMATTR SpiceLine Rser=1m
SYMBOL NVBYST0D6N08X_3P 4416 336 R0
SYMATTR InstName U5
SYMBOL NVBYST0D6N08X_3P 4416 992 R0
SYMATTR InstName U6
SYMBOL ind 4928 640 R270
WINDOW 0 32 56 VTop 2
WINDOW 3 5 56 VBottom 2
SYMATTR InstName L6
SYMATTR Value 0.555m
SYMATTR SpiceLine Rser=1m
SYMBOL ind 768 1120 R0
SYMATTR InstName L7
SYMATTR Value 3n
SYMATTR SpiceLine Rser=1m
SYMBOL ind 2384 1104 R0
SYMATTR InstName L8
SYMATTR Value 3n
SYMATTR SpiceLine Rser=1m
SYMBOL ind 4448 1168 R0
SYMATTR InstName L9
SYMATTR Value 3n
SYMATTR SpiceLine Rser=1m
TEXT -1840 968 Left 2 !.include C:\\Users\\Harry\\Downloads\\T10_80V_STD_rev3p1_ltspice.txt
TEXT -1712 1200 Left 2 !.tran 0 20m 0 50n
