Version 4.1
SHEET 1 4016 884
WIRE 1024 -112 656 -112
WIRE 656 16 656 -32
WIRE 1024 64 1024 -112
WIRE 3248 80 2592 80
WIRE 976 144 832 144
WIRE 2592 208 2592 160
WIRE 1024 224 1024 160
WIRE 1104 224 1024 224
WIRE 3248 240 3248 80
WIRE 3248 240 3024 240
WIRE 3488 240 3248 240
WIRE 832 304 832 144
WIRE 3024 368 3024 240
WIRE 3248 384 3248 240
WIRE 1104 400 1104 224
WIRE 3488 400 3488 240
WIRE 832 432 832 384
WIRE 3024 464 3024 432
WIRE 3024 464 2784 464
WIRE 3200 464 3024 464
WIRE 3024 576 3024 464
WIRE 3024 688 3024 640
WIRE 3248 688 3248 480
WIRE 3248 688 3024 688
WIRE 3488 688 3488 464
WIRE 3488 688 3248 688
WIRE 2784 736 2784 464
WIRE 3248 752 3248 688
WIRE 2784 864 2784 816
FLAG 1104 400 0
FLAG 832 432 0
FLAG 656 16 0
FLAG 2784 864 0
FLAG 2592 208 0
FLAG 3248 752 0
SYMBOL NVBYST0D6N08X_3P 976 64 R0
SYMATTR InstName U1
SYMBOL voltage 656 -128 R0
WINDOW 123 0 0 Left 0
WINDOW 39 0 0 Left 0
SYMATTR InstName V1
SYMATTR Value 10
SYMBOL voltage 832 288 R0
WINDOW 123 0 0 Left 0
WINDOW 39 0 0 Left 0
SYMATTR InstName V2
SYMATTR Value 0
SYMBOL voltage 2592 64 R0
WINDOW 123 0 0 Left 0
WINDOW 39 0 0 Left 0
SYMATTR InstName V3
SYMATTR Value 10
SYMBOL voltage 2784 720 R0
WINDOW 123 0 0 Left 0
WINDOW 39 0 0 Left 0
SYMATTR InstName V4
SYMATTR Value 0
SYMBOL nmos 3200 384 R0
SYMATTR InstName M1
SYMBOL cap 3008 368 R0
SYMATTR InstName C1
SYMATTR Value 6.9e-11
SYMBOL cap 3008 576 R0
SYMATTR InstName C2
SYMATTR Value 1.635e-08
SYMBOL cap 3472 400 R0
SYMATTR InstName C3
SYMATTR Value 4.585e-09
TEXT 0 136 Left 2 !.include C:\\Users\\Harry\\Downloads\\T10_80V_STD_rev3p1_ltspice.txt
TEXT 256 424 Left 2 ;.DC V2 0 10 0.1
TEXT 2192 616 Left 2 !.DC V4 0 10 0.1
