Version 4.1
SHEET 1 1288 680
WIRE -1200 -224 -1568 -224
WIRE -1568 -96 -1568 -144
WIRE -1200 -48 -1200 -224
WIRE -1248 32 -1392 32
WIRE -1200 112 -1200 48
WIRE -1120 112 -1200 112
WIRE -1392 192 -1392 32
WIRE -1120 288 -1120 112
WIRE -1392 320 -1392 272
FLAG -1120 288 0
FLAG -1392 320 0
FLAG -1568 -96 0
SYMBOL voltage -1568 -240 R0
WINDOW 123 0 0 Left 0
WINDOW 39 24 44 Left 2
SYMATTR InstName V1
SYMATTR Value 20
SYMBOL voltage -1392 176 R0
WINDOW 123 0 0 Left 0
WINDOW 39 0 0 Left 0
SYMATTR InstName V2
SYMATTR Value 5
SYMBOL nmos -1248 -48 R0
SYMATTR InstName M2
SYMATTR Value IPTG011N08NM5_L0
SYMATTR Prefix X
TEXT -2232 192 Left 2 !.include C:\\Users\\Harry\\Downloads\\OptiMOS5_80V_LTSpice.lib
TEXT -1968 312 Left 2 !.dc V2 0 7 0.05
TEXT -2088 -24 Left 2 !.temp 25
