Version 4.1
SHEET 1 880 680
SYMBOL UCC5390ECD_TRANS 208 128 R0
SYMATTR InstName U1
