Version 4.1
SHEET 1 1084 1192
WIRE -80 -128 -192 -128
WIRE 448 -128 -80 -128
WIRE -192 -48 -192 -128
WIRE -80 -48 -80 -128
WIRE -192 80 -192 32
WIRE -192 80 -304 80
WIRE -80 80 -80 16
WIRE -80 80 -192 80
WIRE 128 80 -80 80
WIRE 592 80 288 80
WIRE -304 112 -304 80
WIRE 128 112 -192 112
WIRE 448 112 448 -128
WIRE 448 112 288 112
WIRE 128 144 64 144
WIRE 448 144 288 144
WIRE 560 144 448 144
WIRE 800 144 560 144
WIRE 128 176 64 176
WIRE 384 176 288 176
WIRE 448 208 448 144
WIRE 560 224 560 144
WIRE 800 240 800 144
WIRE -192 352 -192 112
WIRE 384 352 384 176
WIRE 384 352 -192 352
WIRE 448 352 448 288
WIRE 448 352 384 352
WIRE 560 352 560 288
WIRE 560 352 448 352
WIRE 624 352 560 352
WIRE 800 400 800 304
WIRE 800 544 800 464
WIRE 800 544 688 544
FLAG 592 80 V_G_high
IOPIN 592 80 BiDir
FLAG 64 144 V_signal_high+
IOPIN 64 144 BiDir
FLAG 64 176 V_signal_high-
IOPIN 64 176 BiDir
FLAG 624 352 phase
IOPIN 624 352 BiDir
FLAG -304 112 0
FLAG 688 544 bootstrap
IOPIN 688 544 BiDir
SYMBOL UCC5390ECD_TRANS 208 128 R0
SYMATTR InstName U1
SYMBOL voltage -192 -64 R0
WINDOW 123 0 0 Left 0
WINDOW 39 0 0 Left 0
SYMATTR InstName V1
SYMATTR Value 5
SYMBOL cap -96 -48 R0
SYMATTR InstName C1
SYMATTR Value 0.2µ
SYMBOL voltage 448 192 R0
WINDOW 123 0 0 Left 0
WINDOW 39 0 0 Left 0
SYMATTR InstName V2
SYMATTR Value 15
SYMBOL cap 544 224 R0
SYMATTR InstName C2
SYMATTR Value 2µ
SYMBOL cap 784 240 R0
SYMATTR InstName C3
SYMATTR Value 1µ
SYMBOL diode 816 464 R180
WINDOW 0 24 64 Left 2
WINDOW 3 24 0 Left 2
SYMATTR InstName D1
TEXT -184 -152 Left 2 ;logic supply
TEXT 440 376 Left 2 ;drive supply
