Version 4.1
SHEET 1 1084 1192
WIRE -80 496 -192 496
WIRE 448 496 -80 496
WIRE -192 576 -192 496
WIRE -80 576 -80 496
WIRE -192 704 -192 656
WIRE -192 704 -304 704
WIRE -80 704 -80 640
WIRE -80 704 -192 704
WIRE 128 704 -80 704
WIRE 592 704 288 704
WIRE -304 736 -304 704
WIRE 128 736 -192 736
WIRE 448 736 448 496
WIRE 448 736 288 736
WIRE 128 768 64 768
WIRE 448 768 288 768
WIRE 560 768 448 768
WIRE 592 768 560 768
WIRE 128 800 64 800
WIRE 384 800 288 800
WIRE 448 832 448 768
WIRE 560 848 560 768
WIRE -192 976 -192 736
WIRE 384 976 384 800
WIRE 384 976 -192 976
WIRE 448 976 448 912
WIRE 448 976 384 976
WIRE 560 976 560 912
WIRE 560 976 448 976
WIRE 624 976 560 976
FLAG 592 704 V_G_low
IOPIN 592 704 BiDir
FLAG 64 768 V_signal_high+
IOPIN 64 768 BiDir
FLAG 64 800 V_signal_high-
IOPIN 64 800 BiDir
FLAG 624 976 low
IOPIN 624 976 BiDir
FLAG -304 736 0
FLAG 592 768 bootstrap
IOPIN 592 768 BiDir
SYMBOL UCC5390ECD_TRANS 208 752 R0
SYMATTR InstName U2
SYMBOL voltage -192 560 R0
WINDOW 123 0 0 Left 0
WINDOW 39 0 0 Left 0
SYMATTR InstName V3
SYMATTR Value 5
SYMBOL cap -96 576 R0
SYMATTR InstName C4
SYMATTR Value 0.2”
SYMBOL voltage 448 816 R0
WINDOW 123 0 0 Left 0
WINDOW 39 0 0 Left 0
SYMATTR InstName V4
SYMATTR Value 15
SYMBOL cap 544 848 R0
SYMATTR InstName C5
SYMATTR Value 2”
TEXT -184 472 Left 2 ;logic supply
TEXT 440 1000 Left 2 ;drive supply
