Version 4.1
SHEET 1 7948 3392
WIRE 1136 -928 1024 -928
WIRE 1328 -928 1216 -928
WIRE 1504 -928 1328 -928
WIRE 1824 -928 1584 -928
WIRE 2080 -928 1904 -928
WIRE 2832 -928 2080 -928
WIRE 3648 -928 2832 -928
WIRE 2080 -800 2080 -928
WIRE 2240 -800 2080 -800
WIRE 2832 -800 2832 -928
WIRE 2992 -800 2832 -800
WIRE 3648 -800 3648 -928
WIRE 3808 -800 3648 -800
WIRE 2080 -672 2080 -800
WIRE 2832 -672 2832 -800
WIRE 3648 -672 3648 -800
WIRE 352 -608 176 -608
WIRE 560 -608 432 -608
WIRE 704 -608 640 -608
WIRE 1984 -592 1888 -592
WIRE 2032 -592 1984 -592
WIRE 2080 -592 2080 -608
WIRE 2784 -592 2720 -592
WIRE 2832 -592 2832 -608
WIRE 3600 -592 3504 -592
WIRE 3648 -592 3648 -608
WIRE 176 -560 176 -608
WIRE 2080 -544 2080 -576
WIRE 2832 -544 2832 -576
WIRE 3648 -544 3648 -576
WIRE 1328 -528 1328 -928
WIRE 2240 -464 2240 -800
WIRE 2992 -464 2992 -800
WIRE 3808 -464 3808 -800
WIRE 2080 -416 2080 -464
WIRE 2080 -416 1968 -416
WIRE 176 -400 176 -480
WIRE 352 -400 176 -400
WIRE 1024 -320 1024 -928
WIRE 1328 -320 1328 -448
WIRE 2080 -288 2080 -416
WIRE 2832 -288 2832 -464
WIRE 2832 -288 2080 -288
WIRE 3648 -288 3648 -464
WIRE 3648 -288 2832 -288
WIRE 4064 -288 3648 -288
WIRE 2240 -192 2240 -400
WIRE 2992 -192 2992 -400
WIRE 3808 -192 3808 -400
WIRE 2080 -176 2080 -288
WIRE 2832 -176 2832 -288
WIRE 3648 -176 3648 -288
WIRE 1984 -96 1888 -96
WIRE 2032 -96 1984 -96
WIRE 2784 -96 2720 -96
WIRE 3600 -96 3504 -96
WIRE 320 -80 160 -80
WIRE 528 -80 400 -80
WIRE 688 -80 608 -80
WIRE 4064 -80 4064 -288
WIRE 160 -32 160 -80
WIRE 2080 -32 2080 -80
WIRE 2832 -32 2832 -80
WIRE 3648 -32 3648 -80
WIRE 4064 64 4064 0
WIRE 160 112 160 48
WIRE 336 112 160 112
WIRE 2080 112 2080 48
WIRE 2080 112 1968 112
WIRE 2080 144 2080 112
WIRE 2240 144 2240 -112
WIRE 2240 144 2080 144
WIRE 2832 144 2832 48
WIRE 2992 144 2992 -112
WIRE 2992 144 2832 144
WIRE 3648 144 3648 48
WIRE 3808 144 3808 -112
WIRE 3808 144 3648 144
WIRE 1024 256 1024 -240
WIRE 1024 256 864 256
WIRE 1136 256 1024 256
WIRE 1328 256 1328 -256
WIRE 1328 256 1216 256
WIRE 1488 256 1328 256
WIRE 1808 256 1568 256
WIRE 2080 256 2080 144
WIRE 2080 256 1888 256
WIRE 2832 256 2832 144
WIRE 2832 256 2080 256
WIRE 3648 256 3648 144
WIRE 3648 256 2832 256
WIRE 864 320 864 256
FLAG 4064 64 0
FLAG 704 -608 G[H]
IOPIN 704 -608 BiDir
FLAG 688 -80 G[L]
IOPIN 688 -80 BiDir
FLAG 1888 -592 G[H]
IOPIN 1888 -592 BiDir
FLAG 1888 -96 G[L]
IOPIN 1888 -96 BiDir
FLAG 864 320 0
FLAG 1968 -416 G_CC[H]
IOPIN 1968 -416 BiDir
FLAG 352 -400 G_CC[H]
IOPIN 352 -400 BiDir
FLAG 1984 -592 V_G[H]
FLAG 1984 -96 V_G[L]
FLAG 2080 -800 V_D[H]
FLAG 2080 144 V_S[L]
FLAG 176 -608 V_GD[H]
FLAG 160 -80 V_GD[L]
FLAG 1328 -928 V_DClink
FLAG 2720 -592 G[H]
IOPIN 2720 -592 BiDir
FLAG 1968 112 G_CC[L]
IOPIN 1968 112 BiDir
FLAG 336 112 G_CC[L]
IOPIN 336 112 BiDir
FLAG 2720 -96 G[L]
IOPIN 2720 -96 BiDir
FLAG 3504 -96 G[L]
IOPIN 3504 -96 BiDir
FLAG 3504 -592 G[H]
IOPIN 3504 -592 BiDir
SYMBOL voltage 1024 -336 R0
WINDOW 3 50 65 Left 2
WINDOW 0 50 37 Left 2
WINDOW 123 0 0 Left 0
SYMATTR Value {supply_voltage}
SYMATTR InstName V_DC
SYMATTR SpiceLine Rser=0
SYMBOL cap 1312 -320 R0
WINDOW 0 52 15 Left 2
WINDOW 3 52 43 Left 2
SYMATTR InstName C_DC1
SYMATTR Value {DC_link_capacitor}
SYMATTR SpiceLine Rser=0
SYMBOL voltage 176 -576 R0
WINDOW 123 0 0 Left 0
WINDOW 39 0 0 Left 0
WINDOW 3 -103 218 Left 2
SYMATTR Value PULSE(0 {gate_voltage} 0 {Trise} {Tfall} {Ton-Tdead} {period})
SYMATTR InstName V2
SYMBOL voltage 160 -48 R0
WINDOW 123 0 0 Left 0
WINDOW 39 0 0 Left 0
WINDOW 3 -353 219 Left 2
SYMATTR Value PULSE(0 {gate_voltage} {Ton + Tdead} {Trise} {Tfall} {period - Ton - 2*Tdead} {period})
SYMATTR InstName V3
SYMBOL cap 2224 -464 R0
WINDOW 0 62 32 Left 2
WINDOW 3 62 60 Left 2
SYMATTR InstName C_snb1
SYMATTR Value {snubber_capacitor}
SYMATTR SpiceLine Rser=0
SYMBOL ind 4048 -96 R0
WINDOW 0 63 60 Left 2
WINDOW 3 56 90 Left 2
WINDOW 39 63 123 Left 2
SYMATTR InstName L_ph
SYMATTR Value {phase_inductance}
SYMATTR SpiceLine Rser={phase_resistance}
SYMBOL nmos 2032 -672 R0
WINDOW 3 56 72 Invisible 2
SYMATTR Value IPTG011N08NM5_L0
SYMATTR InstName M1
SYMATTR Prefix X
SYMBOL nmos 2032 -176 R0
WINDOW 0 67 48 Left 2
WINDOW 3 56 72 Invisible 2
SYMATTR InstName M2
SYMATTR Value IPTG011N08NM5_L0
SYMATTR Prefix X
SYMBOL ind 2064 -560 R0
WINDOW 3 36 80 Invisible 2
SYMATTR Value {common_mode_inductance}
SYMATTR InstName L_cm1[H]
SYMATTR SpiceLine Rser=0
SYMBOL ind 2064 -48 R0
WINDOW 3 36 80 Invisible 2
SYMATTR Value {common_mode_inductance}
SYMATTR InstName L_cm1[L]
SYMATTR SpiceLine Rser=0
SYMBOL ind 2224 -208 R0
WINDOW 0 54 23 Left 2
WINDOW 3 50 52 Left 2
SYMATTR InstName L_pwr1
SYMATTR Value {power_loop_inductance}
SYMATTR SpiceLine Rser=1u
SYMBOL cap 2976 -464 R0
WINDOW 0 62 32 Left 2
WINDOW 3 24 56 Invisible 2
SYMATTR InstName C_snb2
SYMATTR Value {snubber_capacitor}
SYMBOL nmos 2784 -672 R0
WINDOW 3 56 72 Invisible 2
SYMATTR Value IPTG011N08NM5_L0
SYMATTR InstName M3
SYMATTR Prefix X
SYMBOL nmos 2784 -176 R0
WINDOW 0 67 48 Left 2
WINDOW 3 56 72 Invisible 2
SYMATTR InstName M4
SYMATTR Value IPTG011N08NM5_L0
SYMATTR Prefix X
SYMBOL ind 2816 -560 R0
WINDOW 3 36 80 Invisible 2
SYMATTR Value {common_mode_inductance}
SYMATTR InstName L_cm2[H]
SYMATTR SpiceLine Rser=0
SYMBOL ind 2816 -48 R0
WINDOW 3 36 80 Invisible 2
SYMATTR Value {common_mode_inductance}
SYMATTR InstName L_cm2[L]
SYMATTR SpiceLine Rser=0
SYMBOL ind 2976 -208 R0
WINDOW 0 60 51 Left 2
WINDOW 3 36 80 Invisible 2
SYMATTR InstName L_pwr2
SYMATTR Value {power_loop_inductance}
SYMATTR SpiceLine Rser=1u
SYMBOL cap 3792 -464 R0
WINDOW 0 62 32 Left 2
WINDOW 3 24 56 Invisible 2
SYMATTR InstName C_snb3
SYMATTR Value {snubber_capacitor}
SYMBOL nmos 3600 -672 R0
WINDOW 3 56 72 Invisible 2
SYMATTR Value IPTG011N08NM5_L0
SYMATTR InstName M5
SYMATTR Prefix X
SYMBOL nmos 3600 -176 R0
WINDOW 0 67 48 Left 2
WINDOW 3 56 72 Invisible 2
SYMATTR InstName M6
SYMATTR Value IPTG011N08NM5_L0
SYMATTR Prefix X
SYMBOL ind 3632 -560 R0
WINDOW 3 36 80 Invisible 2
SYMATTR Value {common_mode_inductance}
SYMATTR InstName L_cm3[H]
SYMATTR SpiceLine Rser=0
SYMBOL ind 3632 -48 R0
WINDOW 3 36 80 Invisible 2
SYMATTR Value {common_mode_inductance}
SYMATTR InstName L_cm3[L]
SYMATTR SpiceLine Rser=0
SYMBOL ind 3792 -208 R0
WINDOW 0 60 51 Left 2
WINDOW 3 36 80 Invisible 2
SYMATTR InstName L_pwr3
SYMATTR Value {power_loop_inductance}
SYMATTR SpiceLine Rser=1u
SYMBOL ind 1488 -912 R270
WINDOW 0 32 56 VTop 2
WINDOW 3 -21 62 VTop 2
SYMATTR InstName L1
SYMATTR Value {DC_link_inductance}
SYMATTR SpiceLine Rser=0
SYMBOL ind 1472 272 R270
WINDOW 0 32 56 VTop 2
WINDOW 3 -26 60 VTop 2
SYMATTR InstName L2
SYMATTR Value {DC_link_inductance}
SYMATTR SpiceLine Rser=0
SYMBOL ind 336 -592 R270
WINDOW 0 32 56 VTop 2
WINDOW 3 -23 33 VTop 2
SYMATTR InstName L_g3
SYMATTR Value {gate_inductance}
SYMATTR SpiceLine Rser=0
SYMBOL res 544 -592 R270
WINDOW 0 32 56 VTop 2
WINDOW 3 -25 61 VTop 2
SYMATTR InstName R_g3
SYMATTR Value {gate_resistor}
SYMBOL res 1920 -944 R90
WINDOW 0 0 56 VBottom 2
WINDOW 3 57 51 VBottom 2
SYMATTR InstName R1
SYMATTR Value {DC_link_resistance}
SYMBOL res 1904 240 R90
WINDOW 0 0 56 VBottom 2
WINDOW 3 59 54 VBottom 2
SYMATTR InstName R2
SYMATTR Value {DC_link_resistance}
SYMBOL ind 1120 -912 R270
WINDOW 0 32 56 VTop 2
WINDOW 3 -27 56 VTop 2
SYMATTR InstName L3
SYMATTR Value {supply_inductance}
SYMATTR SpiceLine Rser=1u
SYMBOL ind 1120 272 R270
WINDOW 0 32 56 VTop 2
WINDOW 3 -29 56 VTop 2
SYMATTR InstName L4
SYMATTR Value {supply_inductance}
SYMATTR SpiceLine Rser=1u
SYMBOL res 1312 -544 R0
SYMATTR InstName R3
SYMATTR Value {C_DC_ESR}
SYMBOL ind 304 -64 R270
WINDOW 0 32 56 VTop 2
WINDOW 3 -23 33 VTop 2
SYMATTR InstName L_g1
SYMATTR Value {gate_inductance}
SYMATTR SpiceLine Rser=0
SYMBOL res 512 -64 R270
WINDOW 0 32 56 VTop 2
WINDOW 3 -25 61 VTop 2
SYMATTR InstName R_g1
SYMATTR Value {gate_resistor}
TEXT 1504 776 Left 2 !.param D=0.013\n.param f_SW = 25k\n.param period = {1/f_SW}
TEXT 280 608 Left 2 ;.options reltol=1e-3 abstol=1e-12 vntol=1e-6 ; standard
TEXT 1504 464 Left 2 !.include OptiMOS5_80V_LTSpice.lib
TEXT 1512 704 Left 2 !.temp 25
TEXT 2176 928 Left 2 !.param snubber_capacitor = 44u
TEXT 2176 968 Left 2 !.param DC_link_capacitor = 132u
TEXT 2184 400 Left 2 !.param supply_voltage =48
TEXT 2184 584 Left 2 !.param phase_resistance = 0.853m
TEXT 2184 544 Left 2 !.param phase_inductance = 30u
TEXT 1504 1040 Left 2 !.param t_start = {period}\n.param t_stop  = 2*{period}
TEXT 2184 432 Left 2 !.param I_ph_RMS = 140
TEXT 2184 464 Left 2 !.param I_RMS_MOSFET = (I_ph_RMS)*(sqrt(D))
TEXT 1512 728 Left 2 !.param ambient_temperature = 25
TEXT 1504 432 Left 2 !.param Maximum_junction_temperature = 175
TEXT 1504 400 Left 2 !.param rds_on = 1.1m
TEXT 280 728 Left 2 !.ic I(L_ph)={I_ph_RMS}  V(C_DC1) = {supply_voltage}
TEXT 3152 512 Left 2 !.param common_mode_inductance = 0.1n
TEXT 3152 560 Left 2 !.param power_loop_inductance = 2.32n
TEXT 2176 832 Left 2 !.param gate_resistor = 2.4
TEXT 3152 416 Left 2 !.param gate_inductance = 2n
TEXT 288 408 Left 3 ;SETUP
TEXT 1512 344 Left 3 ;MOSFETs
TEXT 2184 360 Left 3 ;OPERATING POINT
TEXT 3160 352 Left 3 ;PARASITIC INDUCTANCES
TEXT 2176 784 Left 3 ;PASSIVES
TEXT 1504 504 Left 2 !.param gate_voltage = 15
TEXT 2272 880 Left 2 ;.step param gate_resistor 1 6 2
TEXT 3152 464 Left 2 !.param DC_link_inductance = 5.65n
TEXT 1032 -1312 Left 2 ;ASSUME: symmetrical power loops
TEXT 1024 -1152 Left 2 ;TRACE + BUS BAR RESISTANCES NOT YET ESTIMATED\n- where a discrete resistor is not included in series, default to 1m ESR
TEXT 1032 -1256 Left 2 ;ASSUME: balanced parallel MOSFETs
TEXT 1504 888 Left 2 !.param Ton=D*{period}\n.param Trise = 35n\n.param Tfall = 25n\n.param Tdead=400n
TEXT 272 512 Left 2 ;.tran 0 100m 0 100n uic
TEXT 280 768 Left 2 !.ic V(C_snb1)=48.82 V(C_snb2)=48.82 V(C_snb3)=48.82
TEXT 1024 -1048 Left 2 ;GATE DRIVE loops modelled as unbalanced
TEXT 3152 608 Left 2 !.param supply_inductance = 10n
TEXT 3160 712 Left 3 ;PARASITIC RESISTANCES
TEXT 3160 760 Left 2 !.param DC_link_resistance = 10n
TEXT 3160 800 Left 2 !.param C_DC_ESR = 1u
TEXT 2640 968 Left 2 ;OneNote > Capacitor Reanalysis (DC)
TEXT 2640 928 Left 2 ;OneNote > Snubber Capacitors (DC) (should be u not n??)
TEXT 2592 544 Left 2 ;OneNote > 3 slot (CG)
TEXT 2648 584 Left 2 ;OneNote > 3 slot (CG)
TEXT 424 448 Left 2 !.options plotwinsize=0 ; allows viewing waveform after abort
TEXT 1960 -1320 Left 2 ;NOMENCLATURE: \nparasitics are capacitance/inductance/resistance\npassive components are capacitor/inductor/resistor\nhigh and low side elements have [H] and [L] appended to name\nG_CC = common reference voltage, phase output etc.\nGD = gate drive\nG = gate\nD = drain\nS = source
TEXT 280 576 Left 2 !.options maxstep=100n ; pushes through transient reponse of reactive components
TEXT 280 640 Left 2 !.options reltol=1e-3 abstol=1e-12 vntol=1e-6 ; relaxed
TEXT 272 480 Left 2 ;.options reltol=3e-3 abstol=1e-8 vntol=1e-3 method=gear ; (find steady state)
TEXT 280 680 Left 2 !.tran 0 520u 20u uic
TEXT 1520 664 Left 3 ;PWM
