[Format]      =  4.0
[Frequency]   =  0
[Precision]   =  1e-008
[MinAngle]    =  10
[DoSmartMesh] =  1
[Depth]       =  0.25
[LengthUnits] =  meters
[ProblemType] =  planar
[Coordinates] =  cartesian
[ACSolver]    =  0
[PrevType]    =  0
[PrevSoln]    =  ""
[Comment]     =  "Add comments here."
[PointProps]   = 0
[BdryProps]   = 2
  <BeginBdry>
    <BdryName> = "Zero"
    <BdryType> = 0
    <A_0> = 0
    <A_1> = 0
    <A_2> = 0
    <Phi> = 0
    <c0> = 0
    <c0i> = 0
    <c1> = 0
    <c1i> = 0
    <Mu_ssd> = 0
    <Sigma_ssd> = 0
    <innerangle> = 0
    <outerangle> = 0
  <EndBdry>
  <BeginBdry>
    <BdryName> = "Neumann"
    <BdryType> = 2
    <A_0> = 0
    <A_1> = 0
    <A_2> = 0
    <Phi> = 0
    <c0> = 0
    <c0i> = 0
    <c1> = 0
    <c1i> = 0
    <Mu_ssd> = 0
    <Sigma_ssd> = 0
    <innerangle> = 0
    <outerangle> = 0
  <EndBdry>
[BlockProps]  = 3
  <BeginBlock>
    <BlockName> = "Air"
    <Mu_x> = 1
    <Mu_y> = 1
    <H_c> = 0
    <H_cAngle> = 0
    <J_re> = 0
    <J_im> = 0
    <Sigma> = 0
    <d_lam> = 0
    <Phi_h> = 0
    <Phi_hx> = 0
    <Phi_hy> = 0
    <LamType> = 0
    <LamFill> = 1
    <NStrands> = 0
    <WireD> = 0
    <BHPoints> = 0
  <EndBlock>
  <BeginBlock>
    <BlockName> = "M-15 Steel"
    <Mu_x> = 1
    <Mu_y> = 1
    <H_c> = 0
    <H_cAngle> = 0
    <J_re> = 0
    <J_im> = 0
    <Sigma> = 1.8999999999999999
    <d_lam> = 0.63500000000000001
    <Phi_h> = 0
    <Phi_hx> = 0
    <Phi_hy> = 0
    <LamType> = 0
    <LamFill> = 0.97999999999999998
    <NStrands> = 0
    <WireD> = 0
    <BHPoints> = 47
      0	0
      0.050000000000000003	15.120714
      0.10000000000000001	22.718292000000002
      0.14999999999999999	27.842732999999999
      0.20000000000000001	31.871434000000001
      0.25	35.365043999999997
      0.29999999999999999	38.600588000000002
      0.34999999999999998	41.736201999999999
      0.40000000000000002	44.873978999999999
      0.45000000000000001	48.087806999999998
      0.5	51.437235999999999
      0.55000000000000004	54.975220999999998
      0.59999999999999998	58.752992999999996
      0.65000000000000002	62.823644000000002
      0.69999999999999996	67.245284999999996
      0.75	72.084406000000001
      0.80000000000000004	77.420100000000005
      0.84999999999999998	83.350020999999998
      0.90000000000000002	89.999611999999999
      0.94999999999999996	97.537352999999996
      1	106.20140600000001
      1.05	116.34846400000001
      1.1000000000000001	128.54732899999999
      1.1499999999999999	143.76543100000001
      1.2	163.75416899999999
      1.25	191.86815799999999
      1.3	234.833507
      1.3500000000000001	306.50976900000001
      1.3999999999999999	435.255202
      1.45	674.911968
      1.5	1108.3255690000001
      1.55	1813.085468
      1.6000000000000001	2801.2174209999998
      1.6499999999999999	4053.6531169999998
      1.7	5591.10689
      1.75	7448.318413
      1.8	9708.81567
      1.8500000000000001	12486.931615
      1.8999999999999999	16041.483644
      1.95	21249.420623999998
      2	31313.495878000002
      2.0499999999999998	53589.446877000002
      2.1000000000000001	88477.484601000004
      2.1499999999999999	124329.41054
      2.2000000000000002	159968.5693
      2.25	197751.604272
      2.2999999999999998	234024.75134700001
  <EndBlock>
  <BeginBlock>
    <BlockName> = "Coil"
    <Mu_x> = 1
    <Mu_y> = 1
    <H_c> = 0
    <H_cAngle> = 0
    <J_re> = 0
    <J_im> = 0
    <Sigma> = 0
    <d_lam> = 0
    <Phi_h> = 0
    <Phi_hx> = 0
    <Phi_hy> = 0
    <LamType> = 0
    <LamFill> = 1
    <NStrands> = 0
    <WireD> = 0
    <BHPoints> = 0
  <EndBlock>
[CircuitProps]  = 3
  <BeginCircuit>
    <CircuitName> = "0"
    <TotalAmps_re> = 140
    <TotalAmps_im> = 0
    <CircuitType> = 0
  <EndCircuit>
  <BeginCircuit>
    <CircuitName> = "1"
    <TotalAmps_re> = 0
    <TotalAmps_im> = 0
    <CircuitType> = 0
  <EndCircuit>
  <BeginCircuit>
    <CircuitName> = "2"
    <TotalAmps_re> = 0
    <TotalAmps_im> = 0
    <CircuitType> = 0
  <EndCircuit>
[NumPoints] = 42
-0.0050000000000000001	-0.0050000000000000001	0	0
-0.0050000000000000001	0.01	0	0
0.027	0.01	0	0
0.027	-0.0050000000000000001	0	0
0	0	0	0
0	0.01	0	0
0.0040000000000000001	0.01	0	0
0.0040000000000000001	0	0	0
0.0090000000000000011	0	0	0
0.0090000000000000011	0.01	0	0
0.013000000000000001	0.01	0	0
0.013000000000000001	0	0	0
0.018000000000000002	0	0	0
0.018000000000000002	0.01	0	0
0.022000000000000002	0.01	0	0
0.022000000000000002	0	0	0
-0.0050000000000000001	0.010999999999999999	0	0
0.027	0.010999999999999999	0	0
-0.0019400000000000001	0.0078499999999999993	0	0
-0.00134	0.0025699999999999998	0	0
-0.0023400000000000001	0.0026099999999999999	0	0
-0.0026700000000000001	0.0078300000000000002	0	0
0.0060699999999999999	0.0077600000000000004	0	0
0.0068900000000000003	0.0077600000000000004	0	0
0.0071399999999999996	0.0022799999999999999	0	0
0.0063200000000000001	0.0022799999999999999	0	0
0.014749999999999999	0.0078499999999999993	0	0
0.01477	0.0017899999999999999	0	0
0.015570000000000001	0.00181	0	0
0.015679999999999999	0.0079600000000000001	0	0
0.023560000000000001	0.0077200000000000003	0	0
0.023800000000000002	0.00108	0	0
0.025489999999999999	0.0011000000000000001	0	0
0.025139999999999999	0.0074700000000000001	0	0
0.0035899999999999999	-0.00156	0	0
0.0093100000000000006	-0.00107	0	0
0.0094000000000000004	-0.00165	0	0
0.0039199999999999999	-0.0024499999999999999	0	0
0.014019999999999999	-0.0013600000000000001	0	0
0.018169999999999999	-0.0012899999999999999	0	0
0.018259999999999998	-0.00198	0	0
0.014200000000000001	-0.0020899999999999998	0	0
[NumSegments] = 46
0	1	-1	1	0	10
1	5	-1	2	0	11
2	3	-1	1	0	10
3	0	-1	1	0	10
5	6	-1	2	0	11
4	5	-1	0	0	0
6	9	-1	2	0	11
6	7	-1	0	0	0
7	4	-1	0	0	0
9	10	-1	2	0	11
8	9	-1	0	0	0
10	13	-1	2	0	11
10	11	-1	0	0	0
11	8	-1	0	0	0
13	14	-1	2	0	11
12	13	-1	0	0	0
14	2	-1	2	0	11
14	15	-1	0	0	0
15	12	-1	0	0	0
1	16	-1	1	0	10
16	17	-1	1	0	10
17	2	-1	1	0	10
21	18	-1	0	0	0
18	19	-1	0	0	0
19	20	-1	0	0	0
20	21	-1	0	0	0
34	37	-1	0	0	0
36	37	-1	0	0	0
35	36	-1	0	0	0
35	34	-1	0	0	0
25	24	-1	0	0	0
24	23	-1	0	0	0
23	22	-1	0	0	0
22	25	-1	0	0	0
41	38	-1	0	0	0
38	39	-1	0	0	0
39	40	-1	0	0	0
40	41	-1	0	0	0
27	28	-1	0	0	0
28	29	-1	0	0	0
29	26	-1	0	0	0
26	27	-1	0	0	0
31	32	-1	0	0	0
32	33	-1	0	0	0
33	30	-1	0	0	0
30	31	-1	0	0	0
[NumArcSegments] = 0
[NumHoles] = 0
[NumBlockLabels] = 11
-0.0048999999999999998	-0.0048999999999999998	2	-1	0	0	0	1	0
0.002	0.0050000000000000001	3	-1	1	0	0	1	0
0.011000000000000001	0.0050000000000000001	3	-1	2	0	1	1	0
0.020000000000000004	0.0050000000000000001	3	-1	3	0	2	1	0
-0.0048999999999999998	0.0101	2	-1	0	0	0	1	0
-0.0020699999999999998	0.0054999999999999997	3	-1	0	0	3	1	0
0.0066699999999999997	0.0054299999999999999	3	-1	0	0	4	1	0
0.01524	0.0051900000000000002	3	-1	0	0	5	1	0
0.024309999999999998	0.0046800000000000001	3	-1	0	0	6	1	0
0.01712	-0.00167	3	-1	0	0	7	1	0
0.0063400000000000001	-0.00156	3	-1	0	0	8	1	0
