[Format]      =  4.0
[Frequency]   =  0
[Precision]   =  1e-008
[MinAngle]    =  10
[DoSmartMesh] =  1
[Depth]       =  0.25
[LengthUnits] =  meters
[ProblemType] =  planar
[Coordinates] =  cartesian
[ACSolver]    =  0
[PrevType]    =  0
[PrevSoln]    =  ""
[Comment]     =  "Add comments here."
[PointProps]   = 0
[BdryProps]   = 2
  <BeginBdry>
    <BdryName> = "Zero"
    <BdryType> = 0
    <A_0> = 0
    <A_1> = 0
    <A_2> = 0
    <Phi> = 0
    <c0> = 0
    <c0i> = 0
    <c1> = 0
    <c1i> = 0
    <Mu_ssd> = 0
    <Sigma_ssd> = 0
    <innerangle> = 0
    <outerangle> = 0
  <EndBdry>
  <BeginBdry>
    <BdryName> = "Neumann"
    <BdryType> = 2
    <A_0> = 0
    <A_1> = 0
    <A_2> = 0
    <Phi> = 0
    <c0> = 0
    <c0i> = 0
    <c1> = 0
    <c1i> = 0
    <Mu_ssd> = 0
    <Sigma_ssd> = 0
    <innerangle> = 0
    <outerangle> = 0
  <EndBdry>
[BlockProps]  = 3
  <BeginBlock>
    <BlockName> = "Air"
    <Mu_x> = 1
    <Mu_y> = 1
    <H_c> = 0
    <H_cAngle> = 0
    <J_re> = 0
    <J_im> = 0
    <Sigma> = 0
    <d_lam> = 0
    <Phi_h> = 0
    <Phi_hx> = 0
    <Phi_hy> = 0
    <LamType> = 0
    <LamFill> = 1
    <NStrands> = 0
    <WireD> = 0
    <BHPoints> = 0
  <EndBlock>
  <BeginBlock>
    <BlockName> = "M-15 Steel"
    <Mu_x> = 1
    <Mu_y> = 1
    <H_c> = 0
    <H_cAngle> = 0
    <J_re> = 0
    <J_im> = 0
    <Sigma> = 1.8999999999999999
    <d_lam> = 0.63500000000000001
    <Phi_h> = 0
    <Phi_hx> = 0
    <Phi_hy> = 0
    <LamType> = 0
    <LamFill> = 0.97999999999999998
    <NStrands> = 0
    <WireD> = 0
    <BHPoints> = 47
      0	0
      0.050000000000000003	15.120714
      0.10000000000000001	22.718292000000002
      0.14999999999999999	27.842732999999999
      0.20000000000000001	31.871434000000001
      0.25	35.365043999999997
      0.29999999999999999	38.600588000000002
      0.34999999999999998	41.736201999999999
      0.40000000000000002	44.873978999999999
      0.45000000000000001	48.087806999999998
      0.5	51.437235999999999
      0.55000000000000004	54.975220999999998
      0.59999999999999998	58.752992999999996
      0.65000000000000002	62.823644000000002
      0.69999999999999996	67.245284999999996
      0.75	72.084406000000001
      0.80000000000000004	77.420100000000005
      0.84999999999999998	83.350020999999998
      0.90000000000000002	89.999611999999999
      0.94999999999999996	97.537352999999996
      1	106.20140600000001
      1.05	116.34846400000001
      1.1000000000000001	128.54732899999999
      1.1499999999999999	143.76543100000001
      1.2	163.75416899999999
      1.25	191.86815799999999
      1.3	234.833507
      1.3500000000000001	306.50976900000001
      1.3999999999999999	435.255202
      1.45	674.911968
      1.5	1108.3255690000001
      1.55	1813.085468
      1.6000000000000001	2801.2174209999998
      1.6499999999999999	4053.6531169999998
      1.7	5591.10689
      1.75	7448.318413
      1.8	9708.81567
      1.8500000000000001	12486.931615
      1.8999999999999999	16041.483644
      1.95	21249.420623999998
      2	31313.495878000002
      2.0499999999999998	53589.446877000002
      2.1000000000000001	88477.484601000004
      2.1499999999999999	124329.41054
      2.2000000000000002	159968.5693
      2.25	197751.604272
      2.2999999999999998	234024.75134700001
  <EndBlock>
  <BeginBlock>
    <BlockName> = "Coil"
    <Mu_x> = 1
    <Mu_y> = 1
    <H_c> = 0
    <H_cAngle> = 0
    <J_re> = 0
    <J_im> = 0
    <Sigma> = 0
    <d_lam> = 0
    <Phi_h> = 0
    <Phi_hx> = 0
    <Phi_hy> = 0
    <LamType> = 0
    <LamFill> = 1
    <NStrands> = 0
    <WireD> = 0
    <BHPoints> = 0
  <EndBlock>
[CircuitProps]  = 3
  <BeginCircuit>
    <CircuitName> = "0"
    <TotalAmps_re> = 140
    <TotalAmps_im> = 0
    <CircuitType> = 0
  <EndCircuit>
  <BeginCircuit>
    <CircuitName> = "1"
    <TotalAmps_re> = 0
    <TotalAmps_im> = 0
    <CircuitType> = 0
  <EndCircuit>
  <BeginCircuit>
    <CircuitName> = "2"
    <TotalAmps_re> = 0
    <TotalAmps_im> = 0
    <CircuitType> = 0
  <EndCircuit>
[NumPoints] = 306
-0.0050000000000000001	-0.0050000000000000001	0	0
-0.0050000000000000001	0.01	0	0
0.027	0.01	0	0
0.027	-0.0050000000000000001	0	0
0	0	0	0
0	0.01	0	0
0.0040000000000000001	0.01	0	0
0.0040000000000000001	0	0	0
0.0090000000000000011	0	0	0
0.0090000000000000011	0.01	0	0
0.013000000000000001	0.01	0	0
0.013000000000000001	0	0	0
0.018000000000000002	0	0	0
0.018000000000000002	0.01	0	0
0.022000000000000002	0.01	0	0
0.022000000000000002	0	0	0
-0.0047842105263157892	0	0	0
-0.0047842105263157892	0.01	0	0
-0.0047342105263157895	0.01	0	0
-0.0047342105263157895	0	0	0
-0.0045184210526315787	0	0	0
-0.0045184210526315787	0.01	0	0
-0.004468421052631579	0.01	0	0
-0.004468421052631579	0	0	0
-0.0042526315789473681	0	0	0
-0.0042526315789473681	0.01	0	0
-0.0042026315789473684	0.01	0	0
-0.0042026315789473684	0	0	0
-0.0039868421052631576	0	0	0
-0.0039868421052631576	0.01	0	0
-0.0039368421052631579	0.01	0	0
-0.0039368421052631579	0	0	0
-0.003721052631578947	0	0	0
-0.003721052631578947	0.01	0	0
-0.0036710526315789473	0.01	0	0
-0.0036710526315789473	0	0	0
-0.0034552631578947364	0	0	0
-0.0034552631578947364	0.01	0	0
-0.0034052631578947367	0.01	0	0
-0.0034052631578947367	0	0	0
-0.0031894736842105259	0	0	0
-0.0031894736842105259	0.01	0	0
-0.0031394736842105262	0.01	0	0
-0.0031394736842105262	0	0	0
-0.0029236842105263153	0	0	0
-0.0029236842105263153	0.01	0	0
-0.0028736842105263156	0.01	0	0
-0.0028736842105263156	0	0	0
-0.0026578947368421047	0	0	0
-0.0026578947368421047	0.01	0	0
-0.0026078947368421051	0.01	0	0
-0.0026078947368421051	0	0	0
-0.0023921052631578942	0	0	0
-0.0023921052631578942	0.01	0	0
-0.0023421052631578945	0.01	0	0
-0.0023421052631578945	0	0	0
-0.0021263157894736836	0	0	0
-0.0021263157894736836	0.01	0	0
-0.0020763157894736839	0.01	0	0
-0.0020763157894736839	0	0	0
-0.0018605263157894731	0	0	0
-0.0018605263157894731	0.01	0	0
-0.0018105263157894734	0.01	0	0
-0.0018105263157894734	0	0	0
-0.0015947368421052625	0	0	0
-0.0015947368421052625	0.01	0	0
-0.0015447368421052628	0.01	0	0
-0.0015447368421052628	0	0	0
-0.0013289473684210519	0	0	0
-0.0013289473684210519	0.01	0	0
-0.0012789473684210522	0.01	0	0
-0.0012789473684210522	0	0	0
-0.0010631578947368414	0	0	0
-0.0010631578947368414	0.01	0	0
-0.0010131578947368417	0.01	0	0
-0.0010131578947368417	0	0	0
-0.00079736842105263082	0	0	0
-0.00079736842105263082	0.01	0	0
-0.00074736842105263112	0.01	0	0
-0.00074736842105263112	0	0	0
-0.00053157894736842026	0	0	0
-0.00053157894736842026	0.01	0	0
-0.00048157894736842056	0.01	0	0
-0.00048157894736842056	0	0	0
-0.00026578947368420969	0	0	0
-0.00026578947368420969	0.01	0	0
-0.00021578947368421	0.01	0	0
-0.00021578947368421	0	0	0
0.0042157894736842118	0	0	0
0.0042157894736842118	0.01	0	0
0.0042657894736842115	0.01	0	0
0.0042657894736842115	0	0	0
0.0044815789473684224	0	0	0
0.0044815789473684224	0.01	0	0
0.0045315789473684221	0.01	0	0
0.0045315789473684221	0	0	0
0.0047473684210526329	0	0	0
0.0047473684210526329	0.01	0	0
0.0047973684210526326	0.01	0	0
0.0047973684210526326	0	0	0
0.0050131578947368435	0	0	0
0.0050131578947368435	0.01	0	0
0.0050631578947368432	0.01	0	0
0.0050631578947368432	0	0	0
0.0052789473684210541	0	0	0
0.0052789473684210541	0.01	0	0
0.0053289473684210538	0.01	0	0
0.0053289473684210538	0	0	0
0.0055447368421052646	0	0	0
0.0055447368421052646	0.01	0	0
0.0055947368421052643	0.01	0	0
0.0055947368421052643	0	0	0
0.0058105263157894752	0	0	0
0.0058105263157894752	0.01	0	0
0.0058605263157894749	0.01	0	0
0.0058605263157894749	0	0	0
0.0060763157894736857	0	0	0
0.0060763157894736857	0.01	0	0
0.0061263157894736854	0.01	0	0
0.0061263157894736854	0	0	0
0.0063421052631578963	0	0	0
0.0063421052631578963	0.01	0	0
0.006392105263157896	0.01	0	0
0.006392105263157896	0	0	0
0.0066078947368421069	0	0	0
0.0066078947368421069	0.01	0	0
0.0066578947368421066	0.01	0	0
0.0066578947368421066	0	0	0
0.0068736842105263174	0	0	0
0.0068736842105263174	0.01	0	0
0.0069236842105263171	0.01	0	0
0.0069236842105263171	0	0	0
0.007139473684210528	0	0	0
0.007139473684210528	0.01	0	0
0.0071894736842105277	0.01	0	0
0.0071894736842105277	0	0	0
0.0074052631578947386	0	0	0
0.0074052631578947386	0.01	0	0
0.0074552631578947383	0.01	0	0
0.0074552631578947383	0	0	0
0.0076710526315789491	0	0	0
0.0076710526315789491	0.01	0	0
0.0077210526315789488	0.01	0	0
0.0077210526315789488	0	0	0
0.0079368421052631588	0	0	0
0.0079368421052631588	0.01	0	0
0.0079868421052631602	0.01	0	0
0.0079868421052631602	0	0	0
0.0082026315789473711	0	0	0
0.0082026315789473711	0.01	0	0
0.0082526315789473691	0.01	0	0
0.0082526315789473691	0	0	0
0.0084684210526315799	0	0	0
0.0084684210526315799	0.01	0	0
0.0085184210526315814	0.01	0	0
0.0085184210526315814	0	0	0
0.0087342105263157922	0	0	0
0.0087342105263157922	0.01	0	0
0.0087842105263157902	0.01	0	0
0.0087842105263157902	0	0	0
0.013215789473684212	0	0	0
0.013215789473684212	0.01	0	0
0.013265789473684213	0.01	0	0
0.013265789473684213	0	0	0
0.013481578947368424	0	0	0
0.013481578947368424	0.01	0	0
0.013531578947368422	0.01	0	0
0.013531578947368422	0	0	0
0.013747368421052633	0	0	0
0.013747368421052633	0.01	0	0
0.013797368421052635	0.01	0	0
0.013797368421052635	0	0	0
0.014013157894736845	0	0	0
0.014013157894736845	0.01	0	0
0.014063157894736843	0.01	0	0
0.014063157894736843	0	0	0
0.014278947368421054	0	0	0
0.014278947368421054	0.01	0	0
0.014328947368421056	0.01	0	0
0.014328947368421056	0	0	0
0.014544736842105267	0	0	0
0.014544736842105267	0.01	0	0
0.014594736842105265	0.01	0	0
0.014594736842105265	0	0	0
0.014810526315789475	0	0	0
0.014810526315789475	0.01	0	0
0.014860526315789477	0.01	0	0
0.014860526315789477	0	0	0
0.015076315789473688	0	0	0
0.015076315789473688	0.01	0	0
0.015126315789473686	0.01	0	0
0.015126315789473686	0	0	0
0.015342105263157896	0	0	0
0.015342105263157896	0.01	0	0
0.015392105263157898	0.01	0	0
0.015392105263157898	0	0	0
0.015607894736842109	0	0	0
0.015607894736842109	0.01	0	0
0.015657894736842107	0.01	0	0
0.015657894736842107	0	0	0
0.015873684210526318	0	0	0
0.015873684210526318	0.01	0	0
0.015923684210526319	0.01	0	0
0.015923684210526319	0	0	0
0.01613947368421053	0	0	0
0.01613947368421053	0.01	0	0
0.016189473684210528	0.01	0	0
0.016189473684210528	0	0	0
0.016405263157894739	0	0	0
0.016405263157894739	0.01	0	0
0.01645526315789474	0.01	0	0
0.01645526315789474	0	0	0
0.016671052631578951	0	0	0
0.016671052631578951	0.01	0	0
0.016721052631578949	0.01	0	0
0.016721052631578949	0	0	0
0.01693684210526316	0	0	0
0.01693684210526316	0.01	0	0
0.016986842105263161	0.01	0	0
0.016986842105263161	0	0	0
0.017202631578947372	0	0	0
0.017202631578947372	0.01	0	0
0.01725263157894737	0.01	0	0
0.01725263157894737	0	0	0
0.017468421052631581	0	0	0
0.017468421052631581	0.01	0	0
0.017518421052631582	0.01	0	0
0.017518421052631582	0	0	0
0.017734210526315793	0	0	0
0.017734210526315793	0.01	0	0
0.017784210526315791	0.01	0	0
0.017784210526315791	0	0	0
0.022215789473684213	0	0	0
0.022215789473684213	0.01	0	0
0.022265789473684214	0.01	0	0
0.022265789473684214	0	0	0
0.022481578947368425	0	0	0
0.022481578947368425	0.01	0	0
0.022531578947368423	0.01	0	0
0.022531578947368423	0	0	0
0.022747368421052634	0	0	0
0.022747368421052634	0.01	0	0
0.022797368421052636	0.01	0	0
0.022797368421052636	0	0	0
0.023013157894736846	0	0	0
0.023013157894736846	0.01	0	0
0.023063157894736844	0.01	0	0
0.023063157894736844	0	0	0
0.023278947368421055	0	0	0
0.023278947368421055	0.01	0	0
0.023328947368421057	0.01	0	0
0.023328947368421057	0	0	0
0.023544736842105268	0	0	0
0.023544736842105268	0.01	0	0
0.023594736842105266	0.01	0	0
0.023594736842105266	0	0	0
0.023810526315789476	0	0	0
0.023810526315789476	0.01	0	0
0.023860526315789478	0.01	0	0
0.023860526315789478	0	0	0
0.024076315789473689	0	0	0
0.024076315789473689	0.01	0	0
0.024126315789473687	0.01	0	0
0.024126315789473687	0	0	0
0.024342105263157898	0	0	0
0.024342105263157898	0.01	0	0
0.024392105263157899	0.01	0	0
0.024392105263157899	0	0	0
0.02460789473684211	0	0	0
0.02460789473684211	0.01	0	0
0.024657894736842108	0.01	0	0
0.024657894736842108	0	0	0
0.024873684210526319	0	0	0
0.024873684210526319	0.01	0	0
0.02492368421052632	0.01	0	0
0.02492368421052632	0	0	0
0.025139473684210531	0	0	0
0.025139473684210531	0.01	0	0
0.025189473684210529	0.01	0	0
0.025189473684210529	0	0	0
0.02540526315789474	0	0	0
0.02540526315789474	0.01	0	0
0.025455263157894741	0.01	0	0
0.025455263157894741	0	0	0
0.025671052631578952	0	0	0
0.025671052631578952	0.01	0	0
0.02572105263157895	0.01	0	0
0.02572105263157895	0	0	0
0.025936842105263161	0	0	0
0.025936842105263161	0.01	0	0
0.025986842105263162	0.01	0	0
0.025986842105263162	0	0	0
0.026202631578947373	0	0	0
0.026202631578947373	0.01	0	0
0.026252631578947371	0.01	0	0
0.026252631578947371	0	0	0
0.026468421052631582	0	0	0
0.026468421052631582	0.01	0	0
0.026518421052631583	0.01	0	0
0.026518421052631583	0	0	0
0.026734210526315794	0	0	0
0.026734210526315794	0.01	0	0
0.026784210526315792	0.01	0	0
0.026784210526315792	0	0	0
-0.0050000000000000001	0.010999999999999999	0	0
0.027	0.010999999999999999	0	0
[NumSegments] = 382
0	1	-1	1	0	22
1	17	-1	2	0	23
2	3	-1	1	0	22
3	0	-1	1	0	22
5	6	-1	2	0	23
4	5	-1	0	0	0
6	89	-1	2	0	23
6	7	-1	0	0	0
7	4	-1	0	0	0
9	10	-1	2	0	23
8	9	-1	0	0	0
10	161	-1	2	0	23
10	11	-1	0	0	0
11	8	-1	0	0	0
13	14	-1	2	0	23
12	13	-1	0	0	0
14	233	-1	2	0	23
14	15	-1	0	0	0
15	12	-1	0	0	0
17	18	-1	2	0	23
16	17	-1	0	0	0
18	21	-1	2	0	23
18	19	-1	0	0	0
19	16	-1	0	0	0
21	22	-1	2	0	23
20	21	-1	0	0	0
22	25	-1	2	0	23
22	23	-1	0	0	0
23	20	-1	0	0	0
25	26	-1	2	0	23
24	25	-1	0	0	0
26	29	-1	2	0	23
26	27	-1	0	0	0
27	24	-1	0	0	0
29	30	-1	2	0	23
28	29	-1	0	0	0
30	33	-1	2	0	23
30	31	-1	0	0	0
31	28	-1	0	0	0
33	34	-1	2	0	23
32	33	-1	0	0	0
34	37	-1	2	0	23
34	35	-1	0	0	0
35	32	-1	0	0	0
37	38	-1	2	0	23
36	37	-1	0	0	0
38	41	-1	2	0	23
38	39	-1	0	0	0
39	36	-1	0	0	0
41	42	-1	2	0	23
40	41	-1	0	0	0
42	45	-1	2	0	23
42	43	-1	0	0	0
43	40	-1	0	0	0
45	46	-1	2	0	23
44	45	-1	0	0	0
46	49	-1	2	0	23
46	47	-1	0	0	0
47	44	-1	0	0	0
49	50	-1	2	0	23
48	49	-1	0	0	0
50	53	-1	2	0	23
50	51	-1	0	0	0
51	48	-1	0	0	0
53	54	-1	2	0	23
52	53	-1	0	0	0
54	57	-1	2	0	23
54	55	-1	0	0	0
55	52	-1	0	0	0
57	58	-1	2	0	23
56	57	-1	0	0	0
58	61	-1	2	0	23
58	59	-1	0	0	0
59	56	-1	0	0	0
61	62	-1	2	0	23
60	61	-1	0	0	0
62	65	-1	2	0	23
62	63	-1	0	0	0
63	60	-1	0	0	0
65	66	-1	2	0	23
64	65	-1	0	0	0
66	69	-1	2	0	23
66	67	-1	0	0	0
67	64	-1	0	0	0
69	70	-1	2	0	23
68	69	-1	0	0	0
70	73	-1	2	0	23
70	71	-1	0	0	0
71	68	-1	0	0	0
73	74	-1	2	0	23
72	73	-1	0	0	0
74	77	-1	2	0	23
74	75	-1	0	0	0
75	72	-1	0	0	0
77	78	-1	2	0	23
76	77	-1	0	0	0
78	81	-1	2	0	23
78	79	-1	0	0	0
79	76	-1	0	0	0
81	82	-1	2	0	23
80	81	-1	0	0	0
82	85	-1	2	0	23
82	83	-1	0	0	0
83	80	-1	0	0	0
85	86	-1	2	0	23
84	85	-1	0	0	0
86	5	-1	2	0	23
86	87	-1	0	0	0
87	84	-1	0	0	0
89	90	-1	2	0	23
88	89	-1	0	0	0
90	93	-1	2	0	23
90	91	-1	0	0	0
91	88	-1	0	0	0
93	94	-1	2	0	23
92	93	-1	0	0	0
94	97	-1	2	0	23
94	95	-1	0	0	0
95	92	-1	0	0	0
97	98	-1	2	0	23
96	97	-1	0	0	0
98	101	-1	2	0	23
98	99	-1	0	0	0
99	96	-1	0	0	0
101	102	-1	2	0	23
100	101	-1	0	0	0
102	105	-1	2	0	23
102	103	-1	0	0	0
103	100	-1	0	0	0
105	106	-1	2	0	23
104	105	-1	0	0	0
106	109	-1	2	0	23
106	107	-1	0	0	0
107	104	-1	0	0	0
109	110	-1	2	0	23
108	109	-1	0	0	0
110	113	-1	2	0	23
110	111	-1	0	0	0
111	108	-1	0	0	0
113	114	-1	2	0	23
112	113	-1	0	0	0
114	117	-1	2	0	23
114	115	-1	0	0	0
115	112	-1	0	0	0
117	118	-1	2	0	23
116	117	-1	0	0	0
118	121	-1	2	0	23
118	119	-1	0	0	0
119	116	-1	0	0	0
121	122	-1	2	0	23
120	121	-1	0	0	0
122	125	-1	2	0	23
122	123	-1	0	0	0
123	120	-1	0	0	0
125	126	-1	2	0	23
124	125	-1	0	0	0
126	129	-1	2	0	23
126	127	-1	0	0	0
127	124	-1	0	0	0
129	130	-1	2	0	23
128	129	-1	0	0	0
130	133	-1	2	0	23
130	131	-1	0	0	0
131	128	-1	0	0	0
133	134	-1	2	0	23
132	133	-1	0	0	0
134	137	-1	2	0	23
134	135	-1	0	0	0
135	132	-1	0	0	0
137	138	-1	2	0	23
136	137	-1	0	0	0
138	141	-1	2	0	23
138	139	-1	0	0	0
139	136	-1	0	0	0
141	142	-1	2	0	23
140	141	-1	0	0	0
142	145	-1	2	0	23
142	143	-1	0	0	0
143	140	-1	0	0	0
145	146	-1	2	0	23
144	145	-1	0	0	0
146	149	-1	2	0	23
146	147	-1	0	0	0
147	144	-1	0	0	0
149	150	-1	2	0	23
148	149	-1	0	0	0
150	153	-1	2	0	23
150	151	-1	0	0	0
151	148	-1	0	0	0
153	154	-1	2	0	23
152	153	-1	0	0	0
154	157	-1	2	0	23
154	155	-1	0	0	0
155	152	-1	0	0	0
157	158	-1	2	0	23
156	157	-1	0	0	0
158	9	-1	2	0	23
158	159	-1	0	0	0
159	156	-1	0	0	0
161	162	-1	2	0	23
160	161	-1	0	0	0
162	165	-1	2	0	23
162	163	-1	0	0	0
163	160	-1	0	0	0
165	166	-1	2	0	23
164	165	-1	0	0	0
166	169	-1	2	0	23
166	167	-1	0	0	0
167	164	-1	0	0	0
169	170	-1	2	0	23
168	169	-1	0	0	0
170	173	-1	2	0	23
170	171	-1	0	0	0
171	168	-1	0	0	0
173	174	-1	2	0	23
172	173	-1	0	0	0
174	177	-1	2	0	23
174	175	-1	0	0	0
175	172	-1	0	0	0
177	178	-1	2	0	23
176	177	-1	0	0	0
178	181	-1	2	0	23
178	179	-1	0	0	0
179	176	-1	0	0	0
181	182	-1	2	0	23
180	181	-1	0	0	0
182	185	-1	2	0	23
182	183	-1	0	0	0
183	180	-1	0	0	0
185	186	-1	2	0	23
184	185	-1	0	0	0
186	189	-1	2	0	23
186	187	-1	0	0	0
187	184	-1	0	0	0
189	190	-1	2	0	23
188	189	-1	0	0	0
190	193	-1	2	0	23
190	191	-1	0	0	0
191	188	-1	0	0	0
193	194	-1	2	0	23
192	193	-1	0	0	0
194	197	-1	2	0	23
194	195	-1	0	0	0
195	192	-1	0	0	0
197	198	-1	2	0	23
196	197	-1	0	0	0
198	201	-1	2	0	23
198	199	-1	0	0	0
199	196	-1	0	0	0
201	202	-1	2	0	23
200	201	-1	0	0	0
202	205	-1	2	0	23
202	203	-1	0	0	0
203	200	-1	0	0	0
205	206	-1	2	0	23
204	205	-1	0	0	0
206	209	-1	2	0	23
206	207	-1	0	0	0
207	204	-1	0	0	0
209	210	-1	2	0	23
208	209	-1	0	0	0
210	213	-1	2	0	23
210	211	-1	0	0	0
211	208	-1	0	0	0
213	214	-1	2	0	23
212	213	-1	0	0	0
214	217	-1	2	0	23
214	215	-1	0	0	0
215	212	-1	0	0	0
217	218	-1	2	0	23
216	217	-1	0	0	0
218	221	-1	2	0	23
218	219	-1	0	0	0
219	216	-1	0	0	0
221	222	-1	2	0	23
220	221	-1	0	0	0
222	225	-1	2	0	23
222	223	-1	0	0	0
223	220	-1	0	0	0
225	226	-1	2	0	23
224	225	-1	0	0	0
226	229	-1	2	0	23
226	227	-1	0	0	0
227	224	-1	0	0	0
229	230	-1	2	0	23
228	229	-1	0	0	0
230	13	-1	2	0	23
230	231	-1	0	0	0
231	228	-1	0	0	0
233	234	-1	2	0	23
232	233	-1	0	0	0
234	237	-1	2	0	23
234	235	-1	0	0	0
235	232	-1	0	0	0
237	238	-1	2	0	23
236	237	-1	0	0	0
238	241	-1	2	0	23
238	239	-1	0	0	0
239	236	-1	0	0	0
241	242	-1	2	0	23
240	241	-1	0	0	0
242	245	-1	2	0	23
242	243	-1	0	0	0
243	240	-1	0	0	0
245	246	-1	2	0	23
244	245	-1	0	0	0
246	249	-1	2	0	23
246	247	-1	0	0	0
247	244	-1	0	0	0
249	250	-1	2	0	23
248	249	-1	0	0	0
250	253	-1	2	0	23
250	251	-1	0	0	0
251	248	-1	0	0	0
253	254	-1	2	0	23
252	253	-1	0	0	0
254	257	-1	2	0	23
254	255	-1	0	0	0
255	252	-1	0	0	0
257	258	-1	2	0	23
256	257	-1	0	0	0
258	261	-1	2	0	23
258	259	-1	0	0	0
259	256	-1	0	0	0
261	262	-1	2	0	23
260	261	-1	0	0	0
262	265	-1	2	0	23
262	263	-1	0	0	0
263	260	-1	0	0	0
265	266	-1	2	0	23
264	265	-1	0	0	0
266	269	-1	2	0	23
266	267	-1	0	0	0
267	264	-1	0	0	0
269	270	-1	2	0	23
268	269	-1	0	0	0
270	273	-1	2	0	23
270	271	-1	0	0	0
271	268	-1	0	0	0
273	274	-1	2	0	23
272	273	-1	0	0	0
274	277	-1	2	0	23
274	275	-1	0	0	0
275	272	-1	0	0	0
277	278	-1	2	0	23
276	277	-1	0	0	0
278	281	-1	2	0	23
278	279	-1	0	0	0
279	276	-1	0	0	0
281	282	-1	2	0	23
280	281	-1	0	0	0
282	285	-1	2	0	23
282	283	-1	0	0	0
283	280	-1	0	0	0
285	286	-1	2	0	23
284	285	-1	0	0	0
286	289	-1	2	0	23
286	287	-1	0	0	0
287	284	-1	0	0	0
289	290	-1	2	0	23
288	289	-1	0	0	0
290	293	-1	2	0	23
290	291	-1	0	0	0
291	288	-1	0	0	0
293	294	-1	2	0	23
292	293	-1	0	0	0
294	297	-1	2	0	23
294	295	-1	0	0	0
295	292	-1	0	0	0
297	298	-1	2	0	23
296	297	-1	0	0	0
298	301	-1	2	0	23
298	299	-1	0	0	0
299	296	-1	0	0	0
301	302	-1	2	0	23
300	301	-1	0	0	0
302	2	-1	2	0	23
302	303	-1	0	0	0
303	300	-1	0	0	0
1	304	-1	1	0	22
304	305	-1	1	0	22
305	2	-1	1	0	22
[NumArcSegments] = 0
[NumHoles] = 0
[NumBlockLabels] = 77
-0.0048999999999999998	-0.0048999999999999998	2	-1	0	0	0	1	0
0.002	0.0050000000000000001	3	-1	1	0	0	1	0
0.011000000000000001	0.0050000000000000001	3	-1	2	0	1	1	0
0.020000000000000004	0.0050000000000000001	3	-1	3	0	2	1	0
-0.0047592105263157894	0.0050000000000000001	3	-1	1	0	3	1	0
-0.0044934210526315788	0.0050000000000000001	3	-1	1	0	4	1	0
-0.0042276315789473683	0.0050000000000000001	3	-1	1	0	5	1	0
-0.0039618421052631577	0.0050000000000000001	3	-1	1	0	6	1	0
-0.0036960526315789471	0.0050000000000000001	3	-1	1	0	7	1	0
-0.0034302631578947366	0.0050000000000000001	3	-1	1	0	8	1	0
-0.003164473684210526	0.0050000000000000001	3	-1	1	0	9	1	0
-0.0028986842105263155	0.0050000000000000001	3	-1	1	0	10	1	0
-0.0026328947368421049	0.0050000000000000001	3	-1	1	0	11	1	0
-0.0023671052631578943	0.0050000000000000001	3	-1	1	0	12	1	0
-0.0021013157894736838	0.0050000000000000001	3	-1	1	0	13	1	0
-0.0018355263157894732	0.0050000000000000001	3	-1	1	0	14	1	0
-0.0015697368421052627	0.0050000000000000001	3	-1	1	0	15	1	0
-0.0013039473684210521	0.0050000000000000001	3	-1	1	0	16	1	0
-0.0010381578947368415	0.0050000000000000001	3	-1	1	0	17	1	0
-0.00077236842105263097	0.0050000000000000001	3	-1	1	0	18	1	0
-0.00050657894736842041	0.0050000000000000001	3	-1	1	0	19	1	0
-0.00024078947368420985	0.0050000000000000001	3	-1	1	0	20	1	0
0.0042407894736842117	0.0050000000000000001	3	-1	1	0	21	1	0
0.0045065789473684222	0.0050000000000000001	3	-1	1	0	22	1	0
0.0047723684210526328	0.0050000000000000001	3	-1	1	0	23	1	0
0.0050381578947368433	0.0050000000000000001	3	-1	1	0	24	1	0
0.0053039473684210539	0.0050000000000000001	3	-1	1	0	25	1	0
0.0055697368421052645	0.0050000000000000001	3	-1	1	0	26	1	0
0.005835526315789475	0.0050000000000000001	3	-1	1	0	27	1	0
0.0061013157894736856	0.0050000000000000001	3	-1	1	0	28	1	0
0.0063671052631578962	0.0050000000000000001	3	-1	1	0	29	1	0
0.0066328947368421067	0.0050000000000000001	3	-1	1	0	30	1	0
0.0068986842105263173	0.0050000000000000001	3	-1	1	0	31	1	0
0.0071644736842105278	0.0050000000000000001	3	-1	1	0	32	1	0
0.0074302631578947384	0.0050000000000000001	3	-1	1	0	33	1	0
0.007696052631578949	0.0050000000000000001	3	-1	1	0	34	1	0
0.0079618421052631595	0.0050000000000000001	3	-1	1	0	35	1	0
0.0082276315789473701	0.0050000000000000001	3	-1	1	0	36	1	0
0.0084934210526315806	0.0050000000000000001	3	-1	1	0	37	1	0
0.0087592105263157912	0.0050000000000000001	3	-1	1	0	38	1	0
0.013240789473684213	0.0050000000000000001	3	-1	1	0	39	1	0
0.013506578947368425	0.0050000000000000001	3	-1	1	0	40	1	0
0.013772368421052634	0.0050000000000000001	3	-1	1	0	41	1	0
0.014038157894736843	0.0050000000000000001	3	-1	1	0	42	1	0
0.014303947368421055	0.0050000000000000001	3	-1	1	0	43	1	0
0.014569736842105267	0.0050000000000000001	3	-1	1	0	44	1	0
0.014835526315789476	0.0050000000000000001	3	-1	1	0	45	1	0
0.015101315789473685	0.0050000000000000001	3	-1	1	0	46	1	0
0.015367105263157897	0.0050000000000000001	3	-1	1	0	47	1	0
0.01563289473684211	0.0050000000000000001	3	-1	1	0	48	1	0
0.015898684210526318	0.0050000000000000001	3	-1	1	0	49	1	0
0.016164473684210527	0.0050000000000000001	3	-1	1	0	50	1	0
0.016430263157894739	0.0050000000000000001	3	-1	1	0	51	1	0
0.016696052631578952	0.0050000000000000001	3	-1	1	0	52	1	0
0.016961842105263161	0.0050000000000000001	3	-1	1	0	53	1	0
0.017227631578947369	0.0050000000000000001	3	-1	1	0	54	1	0
0.017493421052631582	0.0050000000000000001	3	-1	1	0	55	1	0
0.017759210526315794	0.0050000000000000001	3	-1	1	0	56	1	0
0.022240789473684214	0.0050000000000000001	3	-1	1	0	57	1	0
0.022506578947368426	0.0050000000000000001	3	-1	1	0	58	1	0
0.022772368421052635	0.0050000000000000001	3	-1	1	0	59	1	0
0.023038157894736844	0.0050000000000000001	3	-1	1	0	60	1	0
0.023303947368421056	0.0050000000000000001	3	-1	1	0	61	1	0
0.023569736842105268	0.0050000000000000001	3	-1	1	0	62	1	0
0.023835526315789477	0.0050000000000000001	3	-1	1	0	63	1	0
0.024101315789473686	0.0050000000000000001	3	-1	1	0	64	1	0
0.024367105263157898	0.0050000000000000001	3	-1	1	0	65	1	0
0.024632894736842111	0.0050000000000000001	3	-1	1	0	66	1	0
0.024898684210526319	0.0050000000000000001	3	-1	1	0	67	1	0
0.025164473684210528	0.0050000000000000001	3	-1	1	0	68	1	0
0.025430263157894741	0.0050000000000000001	3	-1	1	0	69	1	0
0.025696052631578953	0.0050000000000000001	3	-1	1	0	70	1	0
0.025961842105263162	0.0050000000000000001	3	-1	1	0	71	1	0
0.02622763157894737	0.0050000000000000001	3	-1	1	0	72	1	0
0.026493421052631583	0.0050000000000000001	3	-1	1	0	73	1	0
0.026759210526315795	0.0050000000000000001	3	-1	1	0	74	1	0
-0.0048999999999999998	0.0101	2	-1	0	0	0	1	0
