[Format]      =  4.0
[Frequency]   =  0
[Precision]   =  1e-008
[MinAngle]    =  10
[DoSmartMesh] =  1
[Depth]       =  0.25
[LengthUnits] =  meters
[ProblemType] =  planar
[Coordinates] =  cartesian
[ACSolver]    =  0
[PrevType]    =  0
[PrevSoln]    =  ""
[Comment]     =  "Add comments here."
[PointProps]   = 0
[BdryProps]   = 1
  <BeginBdry>
    <BdryName> = "Zero"
    <BdryType> = 0
    <A_0> = 0
    <A_1> = 0
    <A_2> = 0
    <Phi> = 0
    <c0> = 0
    <c0i> = 0
    <c1> = 0
    <c1i> = 0
    <Mu_ssd> = 0
    <Sigma_ssd> = 0
    <innerangle> = 0
    <outerangle> = 0
  <EndBdry>
[BlockProps]  = 3
  <BeginBlock>
    <BlockName> = "Air"
    <Mu_x> = 1
    <Mu_y> = 1
    <H_c> = 0
    <H_cAngle> = 0
    <J_re> = 0
    <J_im> = 0
    <Sigma> = 0
    <d_lam> = 0
    <Phi_h> = 0
    <Phi_hx> = 0
    <Phi_hy> = 0
    <LamType> = 0
    <LamFill> = 1
    <NStrands> = 0
    <WireD> = 0
    <BHPoints> = 0
  <EndBlock>
  <BeginBlock>
    <BlockName> = "M-15 Steel"
    <Mu_x> = 1
    <Mu_y> = 1
    <H_c> = 0
    <H_cAngle> = 0
    <J_re> = 0
    <J_im> = 0
    <Sigma> = 1.8999999999999999
    <d_lam> = 0.63500000000000001
    <Phi_h> = 0
    <Phi_hx> = 0
    <Phi_hy> = 0
    <LamType> = 0
    <LamFill> = 0.97999999999999998
    <NStrands> = 0
    <WireD> = 0
    <BHPoints> = 47
      0	0
      0.050000000000000003	15.120714
      0.10000000000000001	22.718292000000002
      0.14999999999999999	27.842732999999999
      0.20000000000000001	31.871434000000001
      0.25	35.365043999999997
      0.29999999999999999	38.600588000000002
      0.34999999999999998	41.736201999999999
      0.40000000000000002	44.873978999999999
      0.45000000000000001	48.087806999999998
      0.5	51.437235999999999
      0.55000000000000004	54.975220999999998
      0.59999999999999998	58.752992999999996
      0.65000000000000002	62.823644000000002
      0.69999999999999996	67.245284999999996
      0.75	72.084406000000001
      0.80000000000000004	77.420100000000005
      0.84999999999999998	83.350020999999998
      0.90000000000000002	89.999611999999999
      0.94999999999999996	97.537352999999996
      1	106.20140600000001
      1.05	116.34846400000001
      1.1000000000000001	128.54732899999999
      1.1499999999999999	143.76543100000001
      1.2	163.75416899999999
      1.25	191.86815799999999
      1.3	234.833507
      1.3500000000000001	306.50976900000001
      1.3999999999999999	435.255202
      1.45	674.911968
      1.5	1108.3255690000001
      1.55	1813.085468
      1.6000000000000001	2801.2174209999998
      1.6499999999999999	4053.6531169999998
      1.7	5591.10689
      1.75	7448.318413
      1.8	9708.81567
      1.8500000000000001	12486.931615
      1.8999999999999999	16041.483644
      1.95	21249.420623999998
      2	31313.495878000002
      2.0499999999999998	53589.446877000002
      2.1000000000000001	88477.484601000004
      2.1499999999999999	124329.41054
      2.2000000000000002	159968.5693
      2.25	197751.604272
      2.2999999999999998	234024.75134700001
  <EndBlock>
  <BeginBlock>
    <BlockName> = "Coil"
    <Mu_x> = 1
    <Mu_y> = 1
    <H_c> = 0
    <H_cAngle> = 0
    <J_re> = 0
    <J_im> = 0
    <Sigma> = 0
    <d_lam> = 0
    <Phi_h> = 0
    <Phi_hx> = 0
    <Phi_hy> = 0
    <LamType> = 0
    <LamFill> = 1
    <NStrands> = 0
    <WireD> = 0
    <BHPoints> = 0
  <EndBlock>
[CircuitProps]  = 60
  <BeginCircuit>
    <CircuitName> = "0"
    <TotalAmps_re> = 0
    <TotalAmps_im> = 0
    <CircuitType> = 0
  <EndCircuit>
  <BeginCircuit>
    <CircuitName> = "1"
    <TotalAmps_re> = 56.943130030612025
    <TotalAmps_im> = 0
    <CircuitType> = 0
  <EndCircuit>
  <BeginCircuit>
    <CircuitName> = "2"
    <TotalAmps_re> = 104.04027556683518
    <TotalAmps_im> = 0
    <CircuitType> = 0
  <EndCircuit>
  <BeginCircuit>
    <CircuitName> = "3"
    <TotalAmps_re> = 133.14791228132148
    <TotalAmps_im> = 0
    <CircuitType> = 0
  <EndCircuit>
  <BeginCircuit>
    <CircuitName> = "4"
    <TotalAmps_re> = 139.23306535155828
    <TotalAmps_im> = 0
    <CircuitType> = 0
  <EndCircuit>
  <BeginCircuit>
    <CircuitName> = "5"
    <TotalAmps_re> = 121.24355652982142
    <TotalAmps_im> = 0
    <CircuitType> = 0
  <EndCircuit>
  <BeginCircuit>
    <CircuitName> = "6"
    <TotalAmps_re> = 82.289935320946256
    <TotalAmps_im> = 0
    <CircuitType> = 0
  <EndCircuit>
  <BeginCircuit>
    <CircuitName> = "7"
    <TotalAmps_re> = 29.107636714486361
    <TotalAmps_im> = 0
    <CircuitType> = 0
  <EndCircuit>
  <BeginCircuit>
    <CircuitName> = "8"
    <TotalAmps_re> = -29.107636714486269
    <TotalAmps_im> = -0
    <CircuitType> = 0
  <EndCircuit>
  <BeginCircuit>
    <CircuitName> = "9"
    <TotalAmps_re> = -82.289935320946228
    <TotalAmps_im> = -0
    <CircuitType> = 0
  <EndCircuit>
  <BeginCircuit>
    <CircuitName> = "10"
    <TotalAmps_re> = -121.24355652982139
    <TotalAmps_im> = -0
    <CircuitType> = 0
  <EndCircuit>
  <BeginCircuit>
    <CircuitName> = "11"
    <TotalAmps_re> = -139.23306535155825
    <TotalAmps_im> = -0
    <CircuitType> = 0
  <EndCircuit>
  <BeginCircuit>
    <CircuitName> = "12"
    <TotalAmps_re> = -133.14791228132151
    <TotalAmps_im> = -0
    <CircuitType> = 0
  <EndCircuit>
  <BeginCircuit>
    <CircuitName> = "13"
    <TotalAmps_re> = -104.04027556683523
    <TotalAmps_im> = -0
    <CircuitType> = 0
  <EndCircuit>
  <BeginCircuit>
    <CircuitName> = "14"
    <TotalAmps_re> = -56.943130030612132
    <TotalAmps_im> = -0
    <CircuitType> = 0
  <EndCircuit>
  <BeginCircuit>
    <CircuitName> = "15"
    <TotalAmps_re> = -3.4290110376125892e-014
    <TotalAmps_im> = -0
    <CircuitType> = 0
  <EndCircuit>
  <BeginCircuit>
    <CircuitName> = "16"
    <TotalAmps_re> = 56.943130030611961
    <TotalAmps_im> = 0
    <CircuitType> = 0
  <EndCircuit>
  <BeginCircuit>
    <CircuitName> = "17"
    <TotalAmps_re> = 104.04027556683512
    <TotalAmps_im> = 0
    <CircuitType> = 0
  <EndCircuit>
  <BeginCircuit>
    <CircuitName> = "18"
    <TotalAmps_re> = 133.14791228132148
    <TotalAmps_im> = 0
    <CircuitType> = 0
  <EndCircuit>
  <BeginCircuit>
    <CircuitName> = "19"
    <TotalAmps_re> = 139.23306535155828
    <TotalAmps_im> = 0
    <CircuitType> = 0
  <EndCircuit>
  <BeginCircuit>
    <CircuitName> = "20"
    <TotalAmps_re> = 121.24355652982148
    <TotalAmps_im> = 0
    <CircuitType> = 0
  <EndCircuit>
  <BeginCircuit>
    <CircuitName> = "21"
    <TotalAmps_re> = 82.28993532094627
    <TotalAmps_im> = 0
    <CircuitType> = 0
  <EndCircuit>
  <BeginCircuit>
    <CircuitName> = "22"
    <TotalAmps_re> = 29.107636714486517
    <TotalAmps_im> = 0
    <CircuitType> = 0
  <EndCircuit>
  <BeginCircuit>
    <CircuitName> = "23"
    <TotalAmps_re> = -29.107636714486176
    <TotalAmps_im> = -0
    <CircuitType> = 0
  <EndCircuit>
  <BeginCircuit>
    <CircuitName> = "24"
    <TotalAmps_re> = -82.289935320946199
    <TotalAmps_im> = -0
    <CircuitType> = 0
  <EndCircuit>
  <BeginCircuit>
    <CircuitName> = "25"
    <TotalAmps_re> = -121.24355652982129
    <TotalAmps_im> = -0
    <CircuitType> = 0
  <EndCircuit>
  <BeginCircuit>
    <CircuitName> = "26"
    <TotalAmps_re> = -139.23306535155825
    <TotalAmps_im> = -0
    <CircuitType> = 0
  <EndCircuit>
  <BeginCircuit>
    <CircuitName> = "27"
    <TotalAmps_re> = -133.14791228132154
    <TotalAmps_im> = -0
    <CircuitType> = 0
  <EndCircuit>
  <BeginCircuit>
    <CircuitName> = "28"
    <TotalAmps_re> = -104.04027556683535
    <TotalAmps_im> = -0
    <CircuitType> = 0
  <EndCircuit>
  <BeginCircuit>
    <CircuitName> = "29"
    <TotalAmps_re> = -56.943130030612167
    <TotalAmps_im> = -0
    <CircuitType> = 0
  <EndCircuit>
  <BeginCircuit>
    <CircuitName> = "30"
    <TotalAmps_re> = -6.8580220752251784e-014
    <TotalAmps_im> = -0
    <CircuitType> = 0
  <EndCircuit>
  <BeginCircuit>
    <CircuitName> = "31"
    <TotalAmps_re> = 56.943130030611812
    <TotalAmps_im> = 0
    <CircuitType> = 0
  <EndCircuit>
  <BeginCircuit>
    <CircuitName> = "32"
    <TotalAmps_re> = 104.04027556683509
    <TotalAmps_im> = 0
    <CircuitType> = 0
  <EndCircuit>
  <BeginCircuit>
    <CircuitName> = "33"
    <TotalAmps_re> = 133.14791228132148
    <TotalAmps_im> = 0
    <CircuitType> = 0
  <EndCircuit>
  <BeginCircuit>
    <CircuitName> = "34"
    <TotalAmps_re> = 139.23306535155828
    <TotalAmps_im> = 0
    <CircuitType> = 0
  <EndCircuit>
  <BeginCircuit>
    <CircuitName> = "35"
    <TotalAmps_re> = 121.24355652982149
    <TotalAmps_im> = 0
    <CircuitType> = 0
  <EndCircuit>
  <BeginCircuit>
    <CircuitName> = "36"
    <TotalAmps_re> = 82.289935320946299
    <TotalAmps_im> = 0
    <CircuitType> = 0
  <EndCircuit>
  <BeginCircuit>
    <CircuitName> = "37"
    <TotalAmps_re> = 29.107636714486553
    <TotalAmps_im> = 0
    <CircuitType> = 0
  <EndCircuit>
  <BeginCircuit>
    <CircuitName> = "38"
    <TotalAmps_re> = -29.107636714486141
    <TotalAmps_im> = -0
    <CircuitType> = 0
  <EndCircuit>
  <BeginCircuit>
    <CircuitName> = "39"
    <TotalAmps_re> = -82.289935320946157
    <TotalAmps_im> = -0
    <CircuitType> = 0
  <EndCircuit>
  <BeginCircuit>
    <CircuitName> = "40"
    <TotalAmps_re> = -121.24355652982128
    <TotalAmps_im> = -0
    <CircuitType> = 0
  <EndCircuit>
  <BeginCircuit>
    <CircuitName> = "41"
    <TotalAmps_re> = -139.23306535155822
    <TotalAmps_im> = -0
    <CircuitType> = 0
  <EndCircuit>
  <BeginCircuit>
    <CircuitName> = "42"
    <TotalAmps_re> = -133.14791228132154
    <TotalAmps_im> = -0
    <CircuitType> = 0
  <EndCircuit>
  <BeginCircuit>
    <CircuitName> = "43"
    <TotalAmps_re> = -104.04027556683536
    <TotalAmps_im> = -0
    <CircuitType> = 0
  <EndCircuit>
  <BeginCircuit>
    <CircuitName> = "44"
    <TotalAmps_re> = -56.943130030612423
    <TotalAmps_im> = -0
    <CircuitType> = 0
  <EndCircuit>
  <BeginCircuit>
    <CircuitName> = "45"
    <TotalAmps_re> = -1.0287033112837766e-013
    <TotalAmps_im> = -0
    <CircuitType> = 0
  <EndCircuit>
  <BeginCircuit>
    <CircuitName> = "46"
    <TotalAmps_re> = 56.943130030611783
    <TotalAmps_im> = 0
    <CircuitType> = 0
  <EndCircuit>
  <BeginCircuit>
    <CircuitName> = "47"
    <TotalAmps_re> = 104.04027556683489
    <TotalAmps_im> = 0
    <CircuitType> = 0
  <EndCircuit>
  <BeginCircuit>
    <CircuitName> = "48"
    <TotalAmps_re> = 133.14791228132145
    <TotalAmps_im> = 0
    <CircuitType> = 0
  <EndCircuit>
  <BeginCircuit>
    <CircuitName> = "49"
    <TotalAmps_re> = 139.23306535155828
    <TotalAmps_im> = 0
    <CircuitType> = 0
  <EndCircuit>
  <BeginCircuit>
    <CircuitName> = "50"
    <TotalAmps_re> = 121.24355652982163
    <TotalAmps_im> = 0
    <CircuitType> = 0
  <EndCircuit>
  <BeginCircuit>
    <CircuitName> = "51"
    <TotalAmps_re> = 82.289935320946327
    <TotalAmps_im> = 0
    <CircuitType> = 0
  <EndCircuit>
  <BeginCircuit>
    <CircuitName> = "52"
    <TotalAmps_re> = 29.107636714486585
    <TotalAmps_im> = 0
    <CircuitType> = 0
  <EndCircuit>
  <BeginCircuit>
    <CircuitName> = "53"
    <TotalAmps_re> = -29.107636714485864
    <TotalAmps_im> = -0
    <CircuitType> = 0
  <EndCircuit>
  <BeginCircuit>
    <CircuitName> = "54"
    <TotalAmps_re> = -82.289935320946142
    <TotalAmps_im> = -0
    <CircuitType> = 0
  <EndCircuit>
  <BeginCircuit>
    <CircuitName> = "55"
    <TotalAmps_re> = -121.24355652982126
    <TotalAmps_im> = -0
    <CircuitType> = 0
  <EndCircuit>
  <BeginCircuit>
    <CircuitName> = "56"
    <TotalAmps_re> = -139.23306535155822
    <TotalAmps_im> = -0
    <CircuitType> = 0
  <EndCircuit>
  <BeginCircuit>
    <CircuitName> = "57"
    <TotalAmps_re> = -133.14791228132154
    <TotalAmps_im> = -0
    <CircuitType> = 0
  <EndCircuit>
  <BeginCircuit>
    <CircuitName> = "58"
    <TotalAmps_re> = -104.04027556683539
    <TotalAmps_im> = -0
    <CircuitType> = 0
  <EndCircuit>
  <BeginCircuit>
    <CircuitName> = "59"
    <TotalAmps_re> = -56.943130030612458
    <TotalAmps_im> = -0
    <CircuitType> = 0
  <EndCircuit>
[NumPoints] = 488
0.044999999999999998	0	0	0
-0.044999999999999998	0	0	0
0.074499999999999997	0	0	0
-0.074499999999999997	0	0	0
0.074999999999999997	0	0	0
-0.074999999999999997	0	0	0
0.115	0	0	0
-0.115	0	0	0
-0.0014997117324850868	0.076485298356739423	0	0
-0.0017496270368854046	0.084731937929164572	0	0
0.0017496270368854046	0.084731937929164572	0	0
0.0014997117324850868	0.076485298356739423	0	0
0.0065033945451008473	0.0762230664522935	0	0
0.0071168568645149245	0.084450653332996811	0	0
0.01059694165833662	0.084084881682082474	0	0
0.0094863868544950575	0.075909541326811242	0	0
0.014435248271127854	0.075125718681094161	0	0
0.015905366992809585	0.083244109706477387	0	0
0.019328153969426495	0.082516573875398763	0	0
0.017369127136973108	0.074502103477013748	0	0
0.022208946396326486	0.07320527781495742	0	0
0.024519614591918999	0.081125526194063921	0	0
0.02784760298095109	0.080044197217632979	0	0
0.025061567627814956	0.072278404990954642	0	0
0.029739318657286143	0.070482784605890761	0	0
0.032865220162500118	0.078118114440060532	0	0
0.036061947826730813	0.076694839584825675	0	0
0.032479428339256274	0.069262809174586007	0	0
0.036943860719684044	0.066988067259211068	0	0
0.040850747503491436	0.074254824276985446	0	0
0.043881190425673129	0.072505197240100044	0	0
0.039541437637055372	0.06548835552672598	0	0
0.043743638113037227	0.062759414629485158	0	0
0.048388705506265998	0.069577982720310752	0	0
0.051219661519582342	0.067521172781723912	0	0
0.046170222669525099	0.060996397751395703	0	0
0.050064151053279188	0.057843156719826795	0	0
0.05539650672552629	0.06413883022482339	0	0
0.057996959283479754	0.061797372224637444	0	0
0.052293157080687262	0.055836150677984309	0	0
0.055836150677984295	0.052293157080687269	0	0
0.06179737222463743	0.057996959283479768	0	0
0.06413883022482339	0.055396506725526297	0	0
0.057843156719826788	0.050064151053279209	0	0
0.060996397751395703	0.046170222669525099	0	0
0.067521172781723912	0.051219661519582349	0	0
0.069577982720310752	0.048388705506266005	0	0
0.062759414629485158	0.043743638113037227	0	0
0.06548835552672598	0.039541437637055372	0	0
0.072505197240100031	0.04388119042567315	0	0
0.074254824276985432	0.040850747503491443	0	0
0.066988067259211054	0.036943860719684064	0	0
0.069262809174586007	0.032479428339256287	0	0
0.076694839584825675	0.036061947826730827	0	0
0.078118114440060518	0.032865220162500146	0	0
0.070482784605890761	0.029739318657286164	0	0
0.072278404990954642	0.025061567627814956	0	0
0.080044197217632979	0.02784760298095109	0	0
0.081125526194063921	0.024519614591919005	0	0
0.07320527781495742	0.022208946396326493	0	0
0.074502103477013748	0.017369127136973115	0	0
0.082516573875398763	0.019328153969426502	0	0
0.083244109706477387	0.015905366992809599	0	0
0.075125718681094147	0.014435248271127871	0	0
0.075909541326811242	0.0094863868544950679	0	0
0.084084881682082474	0.010596941658336634	0	0
0.084450653332996811	0.007116856864514947	0	0
0.0762230664522935	0.006503394545100869	0	0
0.076485298356739423	0.001499711732485086	0	0
0.084731937929164572	0.001749627036885405	0	0
0.084731937929164572	-0.0017496270368853948	0	0
0.076485298356739423	-0.0014997117324850766	0	0
0.0762230664522935	-0.0065033945451008421	0	0
0.084450653332996811	-0.0071168568645149175	0	0
0.084084881682082474	-0.010596941658336606	0	0
0.075909541326811242	-0.0094863868544950436	0	0
0.075125718681094161	-0.014435248271127845	0	0
0.083244109706477387	-0.015905366992809571	0	0
0.082516573875398763	-0.019328153969426474	0	0
0.074502103477013762	-0.017369127136973087	0	0
0.07320527781495742	-0.022208946396326486	0	0
0.081125526194063921	-0.024519614591918999	0	0
0.080044197217632979	-0.02784760298095108	0	0
0.072278404990954642	-0.025061567627814946	0	0
0.070482784605890761	-0.029739318657286139	0	0
0.078118114440060532	-0.032865220162500118	0	0
0.076694839584825675	-0.03606194782673082	0	0
0.069262809174586007	-0.03247942833925628	0	0
0.066988067259211068	-0.036943860719684044	0	0
0.074254824276985459	-0.040850747503491422	0	0
0.072505197240100058	-0.043881190425673122	0	0
0.065488355526725994	-0.039541437637055345	0	0
0.062759414629485158	-0.043743638113037227	0	0
0.069577982720310752	-0.048388705506265998	0	0
0.067521172781723912	-0.051219661519582342	0	0
0.06099639775139571	-0.046170222669525078	0	0
0.057843156719826802	-0.050064151053279181	0	0
0.064138830224823418	-0.055396506725526269	0	0
0.061797372224637451	-0.05799695928347974	0	0
0.055836150677984329	-0.052293157080687235	0	0
0.052293157080687269	-0.055836150677984295	0	0
0.057996959283479775	-0.061797372224637409	0	0
0.055396506725526318	-0.064138830224823376	0	0
0.050064151053279222	-0.057843156719826767	0	0
0.046170222669525099	-0.060996397751395703	0	0
0.051219661519582349	-0.067521172781723912	0	0
0.048388705506266005	-0.069577982720310738	0	0
0.043743638113037248	-0.062759414629485158	0	0
0.039541437637055386	-0.065488355526725966	0	0
0.043881190425673164	-0.072505197240100017	0	0
0.04085074750349147	-0.074254824276985432	0	0
0.036943860719684085	-0.06698806725921104	0	0
0.032479428339256287	-0.069262809174586007	0	0
0.036061947826730834	-0.076694839584825675	0	0
0.032865220162500153	-0.078118114440060518	0	0
0.029739318657286167	-0.070482784605890761	0	0
0.02506156762781496	-0.072278404990954642	0	0
0.027847602980951094	-0.080044197217632979	0	0
0.024519614591919012	-0.081125526194063907	0	0
0.022208946396326496	-0.073205277814957406	0	0
0.017369127136973136	-0.074502103477013734	0	0
0.019328153969426526	-0.082516573875398749	0	0
0.015905366992809623	-0.083244109706477373	0	0
0.014435248271127892	-0.075125718681094147	0	0
0.0094863868544950731	-0.075909541326811242	0	0
0.010596941658336639	-0.084084881682082474	0	0
0.0071168568645149513	-0.084450653332996811	0	0
0.0065033945451008742	-0.0762230664522935	0	0
0.0014997117324850907	-0.076485298356739423	0	0
0.0017496270368854104	-0.084731937929164572	0	0
-0.0017496270368853894	-0.084731937929164572	0	0
-0.0014997117324850719	-0.076485298356739423	0	0
-0.0065033945451008213	-0.076223066452293514	0	0
-0.0071168568645148941	-0.084450653332996811	0	0
-0.010596941658336582	-0.084084881682082488	0	0
-0.009486386854495021	-0.075909541326811242	0	0
-0.01443524827112784	-0.075125718681094161	0	0
-0.015905366992809564	-0.083244109706477387	0	0
-0.01932815396942647	-0.082516573875398763	0	0
-0.017369127136973084	-0.074502103477013762	0	0
-0.022208946396326482	-0.07320527781495742	0	0
-0.024519614591918992	-0.081125526194063921	0	0
-0.027847602980951076	-0.080044197217632979	0	0
-0.025061567627814942	-0.072278404990954642	0	0
-0.029739318657286119	-0.070482784605890775	0	0
-0.03286522016250009	-0.078118114440060546	0	0
-0.036061947826730778	-0.076694839584825703	0	0
-0.032479428339256246	-0.069262809174586035	0	0
-0.036943860719684037	-0.066988067259211068	0	0
-0.040850747503491415	-0.074254824276985459	0	0
-0.043881190425673122	-0.072505197240100058	0	0
-0.039541437637055345	-0.065488355526725994	0	0
-0.043743638113037227	-0.062759414629485172	0	0
-0.048388705506265985	-0.069577982720310752	0	0
-0.051219661519582335	-0.067521172781723926	0	0
-0.046170222669525078	-0.06099639775139571	0	0
-0.050064151053279181	-0.057843156719826809	0	0
-0.055396506725526269	-0.064138830224823418	0	0
-0.057996959283479727	-0.061797372224637451	0	0
-0.052293157080687235	-0.055836150677984329	0	0
-0.055836150677984295	-0.052293157080687276	0	0
-0.061797372224637409	-0.057996959283479775	0	0
-0.064138830224823376	-0.055396506725526318	0	0
-0.057843156719826767	-0.050064151053279222	0	0
-0.060996397751395676	-0.04617022266952512	0	0
-0.067521172781723912	-0.051219661519582363	0	0
-0.069577982720310738	-0.048388705506266012	0	0
-0.062759414629485172	-0.04374363811303722	0	0
-0.065488355526725953	-0.039541437637055421	0	0
-0.072505197240100017	-0.043881190425673164	0	0
-0.074254824276985432	-0.04085074750349147	0	0
-0.066988067259211054	-0.036943860719684057	0	0
-0.069262809174585965	-0.032479428339256357	0	0
-0.076694839584825647	-0.036061947826730868	0	0
-0.078118114440060504	-0.032865220162500187	0	0
-0.070482784605890747	-0.029739318657286174	0	0
-0.072278404990954628	-0.025061567627814998	0	0
-0.080044197217632979	-0.027847602980951097	0	0
-0.081125526194063907	-0.024519614591919016	0	0
-0.07320527781495742	-0.022208946396326472	0	0
-0.074502103477013734	-0.017369127136973174	0	0
-0.082516573875398749	-0.019328153969426529	0	0
-0.083244109706477373	-0.015905366992809627	0	0
-0.075125718681094161	-0.014435248271127864	0	0
-0.075909541326811228	-0.0094863868544951442	0	0
-0.08408488168208246	-0.010596941658336682	0	0
-0.084450653332996811	-0.0071168568645149947	0	0
-0.0762230664522935	-0.0065033945451008785	0	0
-0.076485298356739423	-0.0014997117324851293	0	0
-0.084731937929164572	-0.0017496270368854154	0	0
-0.084731937929164572	0.0017496270368853844	0	0
-0.076485298356739423	0.0014997117324851014	0	0
-0.076223066452293514	0.0065033945451007822	0	0
-0.084450653332996811	0.0071168568645148889	0	0
-0.084084881682082488	0.010596941658336577	0	0
-0.075909541326811242	0.0094863868544950505	0	0
-0.075125718681094175	0.014435248271127769	0	0
-0.083244109706477387	0.015905366992809523	0	0
-0.082516573875398777	0.019328153969426425	0	0
-0.074502103477013762	0.01736912713697308	0	0
-0.07320527781495742	0.022208946396326444	0	0
-0.081125526194063921	0.024519614591918988	0	0
-0.080044197217632979	0.027847602980951069	0	0
-0.072278404990954642	0.025061567627814973	0	0
-0.070482784605890789	0.029739318657286084	0	0
-0.078118114440060546	0.03286522016250009	0	0
-0.076694839584825703	0.036061947826730771	0	0
-0.069262809174586007	0.032479428339256267	0	0
-0.066988067259211109	0.036943860719683974	0	0
-0.074254824276985473	0.04085074750349138	0	0
-0.072505197240100086	0.043881190425673081	0	0
-0.065488355526725994	0.039541437637055338	0	0
-0.062759414629485186	0.043743638113037192	0	0
-0.069577982720310752	0.048388705506265985	0	0
-0.067521172781723926	0.051219661519582335	0	0
-0.060996397751395696	0.046170222669525106	0	0
-0.05784315671982683	0.050064151053279146	0	0
-0.064138830224823418	0.055396506725526262	0	0
-0.061797372224637458	0.057996959283479727	0	0
-0.055836150677984316	0.052293157080687248	0	0
-0.052293157080687325	0.055836150677984246	0	0
-0.057996959283479803	0.061797372224637381	0	0
-0.055396506725526345	0.064138830224823334	0	0
-0.050064151053279222	0.057843156719826767	0	0
-0.046170222669525134	0.060996397751395676	0	0
-0.051219661519582363	0.067521172781723912	0	0
-0.048388705506266012	0.069577982720310738	0	0
-0.04374363811303722	0.062759414629485172	0	0
-0.039541437637055428	0.065488355526725953	0	0
-0.043881190425673178	0.072505197240100017	0	0
-0.040850747503491477	0.074254824276985418	0	0
-0.036943860719684064	0.066988067259211054	0	0
-0.032479428339256364	0.069262809174585965	0	0
-0.036061947826730875	0.076694839584825647	0	0
-0.032865220162500194	0.078118114440060504	0	0
-0.029739318657286178	0.070482784605890747	0	0
-0.025061567627815001	0.072278404990954628	0	0
-0.027847602980951104	0.080044197217632979	0	0
-0.024519614591919019	0.081125526194063907	0	0
-0.022208946396326475	0.07320527781495742	0	0
-0.017369127136973177	0.074502103477013734	0	0
-0.019328153969426536	0.082516573875398749	0	0
-0.015905366992809634	0.083244109706477373	0	0
-0.014435248271127868	0.075125718681094147	0	0
-0.0094863868544951511	0.075909541326811228	0	0
-0.010596941658336688	0.08408488168208246	0	0
-0.0071168568645149999	0.084450653332996811	0	0
-0.0065033945451008828	0.0762230664522935	0	0
-0.0012498180341270989	0.073239336799848009	0	0
-0.00099988347704458224	0.065492367746420144	0	0
0.00099988347704458224	0.065492367746420144	0	0
0.0012498180341270989	0.073239336799848009	0	0
0.0064126239262646796	0.072968765608171671	0	0
0.0058514105455555335	0.065238109986627921	0	0
0.0078402225670311278	0.065029077420023548	0	0
0.0088985667265957455	0.072707482491228673	0	0
0.014004807836992478	0.071898733350796343	0	0
0.012638595289732164	0.06426908984187002	0	0
0.01459466253790123	0.063853314913203868	0	0
0.016449820859863004	0.071379029789416543	0	0
0.021443552142363733	0.070040963525052444	0	0
0.019287308939118397	0.06259592409963291	0	0
0.021189200331876608	0.061977962126029927	0	0
0.023820847313443284	0.069268533500209326	0	0
0.028647356403111477	0.067415810245914184	0	0
0.025724706795638767	0.060236944313920973	0	0
0.027551584812890707	0.059423565816080832	0	0
0.030930887579024714	0.066399116662601274	0	0
0.035537294232262005	0.06405203524205641	0	0
0.031880259381265146	0.057217995960914744	0	0
0.033612108365154984	0.056218112483870167	0	0
0.03770204256758599	0.06280221720792932	0	0
0.042037878029146963	0.059986492736336591	0	0
0.037686525173737211	0.0535721552705253	0	0
0.039304370624384771	0.052396721746889849	0	0
0.044060126088117178	0.058517243519318432	0	0
0.048077886037353045	0.055263725663216842	0	0
0.043079889509993412	0.049339366836297777	0	0
0.044566005974085457	0.048001261561731685	0	0
0.049935477647052806	0.053591142665189447	0	0
0.05359114266518944	0.049935477647052813	0	0
0.048001261561731672	0.044566005974085471	0	0
0.049339366836297756	0.043079889509993419	0	0
0.055263725663216835	0.048077886037353058	0	0
0.058517243519318432	0.044060126088117178	0	0
0.052396721746889849	0.039304370624384778	0	0
0.053572155270525293	0.037686525173737224	0	0
0.059986492736336591	0.042037878029146963	0	0
0.062802217207929306	0.037702042567586011	0	0
0.056218112483870153	0.033612108365155005	0	0
0.057217995960914737	0.031880259381265152	0	0
0.06405203524205641	0.035537294232262012	0	0
0.06639911666260126	0.030930887579024732	0	0
0.059423565816080826	0.027551584812890724	0	0
0.060236944313920973	0.025724706795638781	0	0
0.067415810245914171	0.028647356403111491	0	0
0.069268533500209312	0.023820847313443295	0	0
0.061977962126029927	0.021189200331876615	0	0
0.06259592409963291	0.019287308939118397	0	0
0.070040963525052444	0.021443552142363733	0	0
0.071379029789416543	0.016449820859863021	0	0
0.063853314913203854	0.014594662537901244	0	0
0.06426908984187002	0.012638595289732168	0	0
0.071898733350796343	0.014004807836992482	0	0
0.072707482491228659	0.0088985667265957646	0	0
0.065029077420023548	0.0078402225670311469	0	0
0.065238109986627921	0.0058514105455555422	0	0
0.072968765608171671	0.0064126239262646909	0	0
0.073239336799848009	0.0012498180341271091	0	0
0.065492367746420144	0.00099988347704459092	0	0
0.065492367746420144	-0.00099988347704458289	0	0
0.073239336799848009	-0.0012498180341271002	0	0
0.072968765608171671	-0.0064126239262646658	0	0
0.065238109986627921	-0.0058514105455555196	0	0
0.065029077420023548	-0.0078402225670311243	0	0
0.072707482491228673	-0.0088985667265957403	0	0
0.071898733350796343	-0.014004807836992457	0	0
0.064269089841870033	-0.012638595289732147	0	0
0.063853314913203868	-0.014594662537901221	0	0
0.071379029789416557	-0.016449820859862997	0	0
0.070040963525052444	-0.021443552142363726	0	0
0.06259592409963291	-0.019287308939118387	0	0
0.061977962126029927	-0.021189200331876608	0	0
0.069268533500209326	-0.023820847313443284	0	0
0.067415810245914184	-0.028647356403111467	0	0
0.06023694431392098	-0.025724706795638756	0	0
0.059423565816080839	-0.027551584812890689	0	0
0.066399116662601287	-0.030930887579024693	0	0
0.064052035242056424	-0.035537294232261984	0	0
0.057217995960914751	-0.031880259381265132	0	0
0.056218112483870167	-0.033612108365154984	0	0
0.06280221720792932	-0.037702042567585983	0	0
0.059986492736336598	-0.042037878029146949	0	0
0.053572155270525307	-0.037686525173737204	0	0
0.052396721746889849	-0.039304370624384778	0	0
0.058517243519318432	-0.044060126088117178	0	0
0.055263725663216863	-0.048077886037353024	0	0
0.049339366836297784	-0.043079889509993391	0	0
0.048001261561731685	-0.04456600597408545	0	0
0.053591142665189453	-0.049935477647052799	0	0
0.049935477647052827	-0.053591142665189426	0	0
0.044566005974085485	-0.048001261561731665	0	0
0.043079889509993419	-0.049339366836297756	0	0
0.048077886037353058	-0.055263725663216835	0	0
0.044060126088117185	-0.058517243519318425	0	0
0.039304370624384785	-0.052396721746889842	0	0
0.037686525173737211	-0.0535721552705253	0	0
0.042037878029146963	-0.059986492736336591	0	0
0.037702042567586025	-0.062802217207929292	0	0
0.033612108365155019	-0.056218112483870139	0	0
0.031880259381265166	-0.05721799596091473	0	0
0.035537294232262026	-0.064052035242056396	0	0
0.030930887579024739	-0.06639911666260126	0	0
0.027551584812890727	-0.059423565816080826	0	0
0.025724706795638784	-0.060236944313920973	0	0
0.028647356403111494	-0.067415810245914171	0	0
0.023820847313443298	-0.069268533500209312	0	0
0.021189200331876618	-0.061977962126029927	0	0
0.019287308939118401	-0.06259592409963291	0	0
0.021443552142363737	-0.070040963525052444	0	0
0.016449820859863039	-0.071379029789416543	0	0
0.014594662537901263	-0.063853314913203854	0	0
0.012638595289732187	-0.06426908984187002	0	0
0.014004807836992502	-0.071898733350796329	0	0
0.0088985667265957698	-0.072707482491228659	0	0
0.0078402225670311503	-0.065029077420023548	0	0
0.0058514105455555465	-0.065238109986627921	0	0
0.0064126239262646953	-0.072968765608171671	0	0
0.0012498180341271137	-0.073239336799848009	0	0
0.00099988347704459482	-0.065492367746420144	0	0
-0.00099988347704457899	-0.065492367746420144	0	0
-0.0012498180341270957	-0.073239336799848009	0	0
-0.0064126239262646458	-0.072968765608171671	0	0
-0.0058514105455555014	-0.065238109986627921	0	0
-0.0078402225670311052	-0.065029077420023548	0	0
-0.0088985667265957195	-0.072707482491228673	0	0
-0.014004807836992452	-0.071898733350796343	0	0
-0.012638595289732144	-0.064269089841870033	0	0
-0.014594662537901218	-0.063853314913203868	0	0
-0.01644982085986299	-0.071379029789416557	0	0
-0.021443552142363723	-0.070040963525052444	0	0
-0.019287308939118383	-0.06259592409963291	0	0
-0.021189200331876604	-0.061977962126029934	0	0
-0.023820847313443281	-0.069268533500209326	0	0
-0.028647356403111446	-0.067415810245914184	0	0
-0.025724706795638742	-0.060236944313920987	0	0
-0.027551584812890686	-0.059423565816080846	0	0
-0.03093088757902469	-0.066399116662601287	0	0
-0.035537294232261984	-0.064052035242056424	0	0