[Format]      =  4.0
[Frequency]   =  0
[Precision]   =  1e-008
[MinAngle]    =  10
[DoSmartMesh] =  1
[Depth]       =  0.25
[LengthUnits] =  meters
[ProblemType] =  planar
[Coordinates] =  cartesian
[ACSolver]    =  0
[PrevType]    =  0
[PrevSoln]    =  ""
[Comment]     =  "Add comments here."
[PointProps]   = 0
[BdryProps]   = 1
  <BeginBdry>
    <BdryName> = "Zero"
    <BdryType> = 0
    <A_0> = 0
    <A_1> = 0
    <A_2> = 0
    <Phi> = 0
    <c0> = 0
    <c0i> = 0
    <c1> = 0
    <c1i> = 0
    <Mu_ssd> = 0
    <Sigma_ssd> = 0
    <innerangle> = 0
    <outerangle> = 0
  <EndBdry>
[BlockProps]  = 3
  <BeginBlock>
    <BlockName> = "Air"
    <Mu_x> = 1
    <Mu_y> = 1
    <H_c> = 0
    <H_cAngle> = 0
    <J_re> = 0
    <J_im> = 0
    <Sigma> = 0
    <d_lam> = 0
    <Phi_h> = 0
    <Phi_hx> = 0
    <Phi_hy> = 0
    <LamType> = 0
    <LamFill> = 1
    <NStrands> = 0
    <WireD> = 0
    <BHPoints> = 0
  <EndBlock>
  <BeginBlock>
    <BlockName> = "M-15 Steel"
    <Mu_x> = 1
    <Mu_y> = 1
    <H_c> = 0
    <H_cAngle> = 0
    <J_re> = 0
    <J_im> = 0
    <Sigma> = 1.8999999999999999
    <d_lam> = 0.63500000000000001
    <Phi_h> = 0
    <Phi_hx> = 0
    <Phi_hy> = 0
    <LamType> = 0
    <LamFill> = 0.97999999999999998
    <NStrands> = 0
    <WireD> = 0
    <BHPoints> = 47
      0	0
      0.050000000000000003	15.120714
      0.10000000000000001	22.718292000000002
      0.14999999999999999	27.842732999999999
      0.20000000000000001	31.871434000000001
      0.25	35.365043999999997
      0.29999999999999999	38.600588000000002
      0.34999999999999998	41.736201999999999
      0.40000000000000002	44.873978999999999
      0.45000000000000001	48.087806999999998
      0.5	51.437235999999999
      0.55000000000000004	54.975220999999998
      0.59999999999999998	58.752992999999996
      0.65000000000000002	62.823644000000002
      0.69999999999999996	67.245284999999996
      0.75	72.084406000000001
      0.80000000000000004	77.420100000000005
      0.84999999999999998	83.350020999999998
      0.90000000000000002	89.999611999999999
      0.94999999999999996	97.537352999999996
      1	106.20140600000001
      1.05	116.34846400000001
      1.1000000000000001	128.54732899999999
      1.1499999999999999	143.76543100000001
      1.2	163.75416899999999
      1.25	191.86815799999999
      1.3	234.833507
      1.3500000000000001	306.50976900000001
      1.3999999999999999	435.255202
      1.45	674.911968
      1.5	1108.3255690000001
      1.55	1813.085468
      1.6000000000000001	2801.2174209999998
      1.6499999999999999	4053.6531169999998
      1.7	5591.10689
      1.75	7448.318413
      1.8	9708.81567
      1.8500000000000001	12486.931615
      1.8999999999999999	16041.483644
      1.95	21249.420623999998
      2	31313.495878000002
      2.0499999999999998	53589.446877000002
      2.1000000000000001	88477.484601000004
      2.1499999999999999	124329.41054
      2.2000000000000002	159968.5693
      2.25	197751.604272
      2.2999999999999998	234024.75134700001
  <EndBlock>
  <BeginBlock>
    <BlockName> = "Coil"
    <Mu_x> = 1
    <Mu_y> = 1
    <H_c> = 0
    <H_cAngle> = 0
    <J_re> = 0
    <J_im> = 0
    <Sigma> = 0
    <d_lam> = 0
    <Phi_h> = 0
    <Phi_hx> = 0
    <Phi_hy> = 0
    <LamType> = 0
    <LamFill> = 1
    <NStrands> = 0
    <WireD> = 0
    <BHPoints> = 0
  <EndBlock>
[CircuitProps]  = 6
  <BeginCircuit>
    <CircuitName> = "0"
    <TotalAmps_re> = 0
    <TotalAmps_im> = 0
    <CircuitType> = 0
  <EndCircuit>
  <BeginCircuit>
    <CircuitName> = "1"
    <TotalAmps_re> = 121.24355652982142
    <TotalAmps_im> = 0
    <CircuitType> = 0
  <EndCircuit>
  <BeginCircuit>
    <CircuitName> = "2"
    <TotalAmps_re> = -121.24355652982139
    <TotalAmps_im> = -0
    <CircuitType> = 0
  <EndCircuit>
  <BeginCircuit>
    <CircuitName> = "3"
    <TotalAmps_re> = -3.4290110376125892e-014
    <TotalAmps_im> = -0
    <CircuitType> = 0
  <EndCircuit>
  <BeginCircuit>
    <CircuitName> = "4"
    <TotalAmps_re> = 121.24355652982148
    <TotalAmps_im> = 0
    <CircuitType> = 0
  <EndCircuit>
  <BeginCircuit>
    <CircuitName> = "5"
    <TotalAmps_re> = -121.24355652982129
    <TotalAmps_im> = -0
    <CircuitType> = 0
  <EndCircuit>
[NumPoints] = 56
0.044999999999999998	0	0	0
-0.044999999999999998	0	0	0
0.074499999999999997	0	0	0
-0.074499999999999997	0	0	0
0.074999999999999997	0	0	0
-0.074999999999999997	0	0	0
0.115	0	0	0
-0.115	0	0	0
-0.0014997117324850868	0.076485298356739423	0	0
-0.0017496270368854046	0.084731937929164572	0	0
0.0017496270368854046	0.084731937929164572	0	0
0.0014997117324850868	0.076485298356739423	0	0
0.06548835552672598	0.039541437637055372	0	0
0.072505197240100031	0.04388119042567315	0	0
0.074254824276985432	0.040850747503491443	0	0
0.066988067259211054	0.036943860719684064	0	0
0.066988067259211068	-0.036943860719684044	0	0
0.074254824276985459	-0.040850747503491422	0	0
0.072505197240100058	-0.043881190425673122	0	0
0.065488355526725994	-0.039541437637055345	0	0
0.0014997117324850907	-0.076485298356739423	0	0
0.0017496270368854104	-0.084731937929164572	0	0
-0.0017496270368853894	-0.084731937929164572	0	0
-0.0014997117324850719	-0.076485298356739423	0	0
-0.065488355526725953	-0.039541437637055421	0	0
-0.072505197240100017	-0.043881190425673164	0	0
-0.074254824276985432	-0.04085074750349147	0	0
-0.066988067259211054	-0.036943860719684057	0	0
-0.066988067259211109	0.036943860719683974	0	0
-0.074254824276985473	0.04085074750349138	0	0
-0.072505197240100086	0.043881190425673081	0	0
-0.065488355526725994	0.039541437637055338	0	0
-0.0012498180341270989	0.073239336799848009	0	0
-0.00099988347704458224	0.065492367746420144	0	0
0.00099988347704458224	0.065492367746420144	0	0
0.0012498180341270989	0.073239336799848009	0	0
0.062802217207929306	0.037702042567586011	0	0
0.056218112483870153	0.033612108365155005	0	0
0.057217995960914737	0.031880259381265152	0	0
0.06405203524205641	0.035537294232262012	0	0
0.064052035242056424	-0.035537294232261984	0	0
0.057217995960914751	-0.031880259381265132	0	0
0.056218112483870167	-0.033612108365154984	0	0
0.06280221720792932	-0.037702042567585983	0	0
0.0012498180341271137	-0.073239336799848009	0	0
0.00099988347704459482	-0.065492367746420144	0	0
-0.00099988347704457899	-0.065492367746420144	0	0
-0.0012498180341270957	-0.073239336799848009	0	0
-0.062802217207929292	-0.037702042567586032	0	0
-0.056218112483870139	-0.033612108365155019	0	0
-0.05721799596091473	-0.031880259381265173	0	0
-0.064052035242056396	-0.035537294232262033	0	0
-0.064052035242056451	0.03553729423226195	0	0
-0.057217995960914765	0.031880259381265097	0	0
-0.056218112483870188	0.033612108365154957	0	0
-0.062802217207929348	0.037702042567585949	0	0
[NumSegments] = 24
8	9	-1	0	0	0
10	11	-1	0	0	0
12	13	-1	0	0	0
14	15	-1	0	0	0
16	17	-1	0	0	0
18	19	-1	0	0	0
20	21	-1	0	0	0
22	23	-1	0	0	0
24	25	-1	0	0	0
26	27	-1	0	0	0
28	29	-1	0	0	0
30	31	-1	0	0	0
32	33	-1	0	0	0
34	35	-1	0	0	0
36	37	-1	0	0	0
38	39	-1	0	0	0
40	41	-1	0	0	0
42	43	-1	0	0	0
44	45	-1	0	0	0
46	47	-1	0	0	0
48	49	-1	0	0	0
50	51	-1	0	0	0
52	53	-1	0	0	0
54	55	-1	0	0	0
[NumArcSegments] = 32
0	1	180	1	1	0	15	1
1	0	180	1	1	0	15	1
2	3	180	1	0	0	0	1
3	2	180	1	0	0	0	1
4	5	180	1	0	0	0	1
5	4	180	1	0	0	0	1
6	7	180	1	1	0	15	1
7	6	180	1	1	0	15	1
10	9	180	1	0	0	0	1
8	11	176.52859082214323	1	0	0	0	1
14	13	180	1	0	0	0	1
12	15	176.52859082214323	1	0	0	0	1
18	17	180	1	0	0	0	1
16	19	176.52859082214323	1	0	0	0	1
22	21	180	1	0	0	0	1
20	23	176.52859082214323	1	0	0	0	1
26	25	180	1	0	0	0	1
24	27	176.52859082214323	1	0	0	0	1
30	29	180	1	0	0	0	1
28	31	176.52859082214323	1	0	0	0	1
33	34	180	1	0	0	0	1
35	32	180	1	0	0	0	1
37	38	180	1	0	0	0	1
39	36	180	1	0	0	0	1
41	42	180	1	0	0	0	1
43	40	180	1	0	0	0	1
45	46	180	1	0	0	0	1
47	44	180	1	0	0	0	1
49	50	180	1	0	0	0	1
51	48	180	1	0	0	0	1
53	54	180	1	0	0	0	1
55	52	180	1	0	0	0	1
[NumHoles] = 1
0.022499999999999999	0	14
[NumBlockLabels] = 15
0	0.10075000000000001	2	-1	1	0	12	1	0
0	0.074749999999999997	1	-1	1	0	13	1	0
0	0.059749999999999998	2	-1	1	0	12	1	0
0	0.080608618142952004	3	-1	1	0	0	1	0
0.069809111075755631	0.040304309071476002	3	-1	2	0	1	1	0
0.069809111075755645	-0.040304309071475981	3	-1	3	0	2	1	0
1.0028870095490916e-017	-0.080608618142952004	3	-1	4	0	3	1	0
-0.069809111075755603	-0.04030430907147603	3	-1	5	0	4	1	0
-0.069809111075755659	0.040304309071475947	3	-1	6	0	5	1	0
0	0.069365852273134077	1	-1	1	0	6	1	0
0.06007259022369265	0.034682926136567045	1	-1	1	0	7	1	0
0.060072590223692671	-0.034682926136567024	1	-1	1	0	8	1	0
8.4567769453869346e-018	-0.069365852273134077	1	-1	1	0	9	1	0
-0.060072590223692643	-0.034682926136567066	1	-1	1	0	10	1	0
-0.060072590223692685	0.03468292613656699	1	-1	1	0	11	1	0
